<?xml version="1.0" encoding="UTF-8"?>

<!-- generated on 2022-09-29 22:52:19.008625 by randomTrips.py v1_14_1+0000-f654d7b963e
<configuration>
    <end value="10000"/>
    <net-file value="net.net.xml"/>
    <period value="5.0"/>
    <route-file value="osm.rou.xml"/>
    <output-trip-file value="trips.xml"/>
</configuration>
-->

<!-- generated on 2022-09-29 22:52:18 by Eclipse SUMO duarouter Version 1.14.1
<configuration xmlns:xsi="http://www.w3.org/2001/XMLSchema-instance" xsi:noNamespaceSchemaLocation="http://sumo.dlr.de/xsd/duarouterConfiguration.xsd">

    <input>
        <net-file value="net.net.xml"/>
        <route-files value="trips.xml"/>
    </input>

    <output>
        <output-file value="osm.rou.xml"/>
        <alternatives-output value="NUL"/>
    </output>

    <time>
        <begin value="0"/>
        <end value="10000"/>
    </time>

    <report>
        <no-warnings value="true"/>
        <ignore-errors value="true"/>
        <no-step-log value="true"/>
    </report>

</configuration>
-->

<routes xmlns:xsi="http://www.w3.org/2001/XMLSchema-instance" xsi:noNamespaceSchemaLocation="http://sumo.dlr.de/xsd/routes_file.xsd">
    <flow id="f_0" begin="0.00" from="-E2" to="E7" end="1000.00" vehsPerHour="2000.00"/>
    <flow id="f_1" begin="0.00" from="-E7" to="E2" end="1000.00" vehsPerHour="2000.00"/>
    <vehicle id="0" depart="0.00">
        <route edges="-E7 -E4 -E0"/>
    </vehicle>
    <vehicle id="2" depart="10.00">
        <route edges="E0 E4"/>
    </vehicle>
    <vehicle id="4" depart="20.00">
        <route edges="-E5 -E4 -E0"/>
    </vehicle>
    <vehicle id="6" depart="30.00">
        <route edges="-E0 -E3"/>
    </vehicle>
    <vehicle id="7" depart="35.00">
        <route edges="-E7 -E4 -E0 E2"/>
    </vehicle>
    <vehicle id="10" depart="50.00">
        <route edges="E3 E0 E4"/>
    </vehicle>
    <vehicle id="11" depart="55.00">
        <route edges="-E4 -E0 -E3"/>
    </vehicle>
    <vehicle id="13" depart="65.00">
        <route edges="-E0"/>
    </vehicle>
    <vehicle id="14" depart="70.00">
        <route edges="E3 E0 E4"/>
    </vehicle>
    <vehicle id="15" depart="75.00">
        <route edges="E3 E0 E4 E5"/>
    </vehicle>
    <vehicle id="16" depart="80.00">
        <route edges="-E6 E7"/>
    </vehicle>
    <vehicle id="17" depart="85.00">
        <route edges="-E4 -E0 E2"/>
    </vehicle>
    <vehicle id="18" depart="90.00">
        <route edges="E3 E0 E4"/>
    </vehicle>
    <vehicle id="19" depart="95.00">
        <route edges="E3 E2"/>
    </vehicle>
    <vehicle id="25" depart="125.00">
        <route edges="-E4"/>
    </vehicle>
    <vehicle id="26" depart="130.00">
        <route edges="-E2 E0 E4 E7"/>
    </vehicle>
    <vehicle id="28" depart="140.00">
        <route edges="-E1 E0 E4 E5"/>
    </vehicle>
    <vehicle id="29" depart="145.00">
        <route edges="-E1 E0"/>
    </vehicle>
    <vehicle id="30" depart="150.00">
        <route edges="E4"/>
    </vehicle>
    <vehicle id="32" depart="160.00">
        <route edges="E3 E0 E4 E5"/>
    </vehicle>
    <vehicle id="34" depart="170.00">
        <route edges="-E4"/>
    </vehicle>
    <vehicle id="35" depart="175.00">
        <route edges="-E2 E0 E4 E7"/>
    </vehicle>
    <vehicle id="36" depart="180.00">
        <route edges="E3 E0"/>
    </vehicle>
    <vehicle id="40" depart="200.00">
        <route edges="-E6 -E4"/>
    </vehicle>
    <vehicle id="42" depart="210.00">
        <route edges="-E4"/>
    </vehicle>
    <vehicle id="44" depart="220.00">
        <route edges="-E0"/>
    </vehicle>
    <vehicle id="45" depart="225.00">
        <route edges="-E1 E0 E4"/>
    </vehicle>
    <vehicle id="49" depart="245.00">
        <route edges="E4 E6"/>
    </vehicle>
    <vehicle id="51" depart="255.00">
        <route edges="-E7 -E4 -E0 E2"/>
    </vehicle>
    <vehicle id="52" depart="260.00">
        <route edges="-E2 E0 E4"/>
    </vehicle>
    <vehicle id="54" depart="270.00">
        <route edges="-E5 E7"/>
    </vehicle>
    <vehicle id="56" depart="280.00">
        <route edges="-E6 -E4 -E0 -E3"/>
    </vehicle>
    <vehicle id="57" depart="285.00">
        <route edges="E4 E6"/>
    </vehicle>
    <vehicle id="58" depart="290.00">
        <route edges="-E2 E0 E4"/>
    </vehicle>
    <vehicle id="59" depart="295.00">
        <route edges="-E7 -E4 -E0 -E3"/>
    </vehicle>
    <vehicle id="64" depart="320.00">
        <route edges="E3 E0 E4 E6"/>
    </vehicle>
    <vehicle id="65" depart="325.00">
        <route edges="-E4 -E0"/>
    </vehicle>
    <vehicle id="66" depart="330.00">
        <route edges="E3 E0 E4 E7"/>
    </vehicle>
    <vehicle id="67" depart="335.00">
        <route edges="-E0 E1"/>
    </vehicle>
    <vehicle id="70" depart="350.00">
        <route edges="-E5 -E4 -E0 E2"/>
    </vehicle>
    <vehicle id="71" depart="355.00">
        <route edges="-E2 E0 E4 E6"/>
    </vehicle>
    <vehicle id="72" depart="360.00">
        <route edges="-E5 -E4"/>
    </vehicle>
    <vehicle id="73" depart="365.00">
        <route edges="-E6 E5"/>
    </vehicle>
    <vehicle id="74" depart="370.00">
        <route edges="-E2 E0"/>
    </vehicle>
    <vehicle id="75" depart="375.00">
        <route edges="E4"/>
    </vehicle>
    <vehicle id="76" depart="380.00">
        <route edges="-E5 -E4 -E0 E2"/>
    </vehicle>
    <vehicle id="78" depart="390.00">
        <route edges="-E4 -E0 E2"/>
    </vehicle>
    <vehicle id="81" depart="405.00">
        <route edges="-E2 E0 E4 E7"/>
    </vehicle>
    <vehicle id="83" depart="415.00">
        <route edges="-E2 E0 E4"/>
    </vehicle>
    <vehicle id="84" depart="420.00">
        <route edges="-E2 -E3"/>
    </vehicle>
    <vehicle id="88" depart="440.00">
        <route edges="-E0 E1"/>
    </vehicle>
    <vehicle id="89" depart="445.00">
        <route edges="-E5 -E4 -E0 E1"/>
    </vehicle>
    <vehicle id="90" depart="450.00">
        <route edges="E0 E4"/>
    </vehicle>
    <vehicle id="95" depart="475.00">
        <route edges="-E5 -E4"/>
    </vehicle>
    <vehicle id="96" depart="480.00">
        <route edges="-E2 E0 E4 E7"/>
    </vehicle>
    <vehicle id="97" depart="485.00">
        <route edges="-E5 E6"/>
    </vehicle>
    <vehicle id="98" depart="490.00">
        <route edges="-E6 -E4 -E0"/>
    </vehicle>
    <vehicle id="99" depart="495.00">
        <route edges="E4 E6"/>
    </vehicle>
    <vehicle id="100" depart="500.00">
        <route edges="E4 E7"/>
    </vehicle>
    <vehicle id="102" depart="510.00">
        <route edges="-E5 -E4"/>
    </vehicle>
    <vehicle id="103" depart="515.00">
        <route edges="-E5 -E4 -E0"/>
    </vehicle>
    <vehicle id="105" depart="525.00">
        <route edges="-E2 E0 E4 E5"/>
    </vehicle>
    <vehicle id="106" depart="530.00">
        <route edges="-E5 -E4 -E0 E1"/>
    </vehicle>
    <vehicle id="107" depart="535.00">
        <route edges="E4 E7"/>
    </vehicle>
    <vehicle id="108" depart="540.00">
        <route edges="-E6 E5"/>
    </vehicle>
    <vehicle id="111" depart="555.00">
        <route edges="-E6 E5"/>
    </vehicle>
    <vehicle id="112" depart="560.00">
        <route edges="-E0 E2"/>
    </vehicle>
    <vehicle id="114" depart="570.00">
        <route edges="-E1 E0 E4 E7"/>
    </vehicle>
    <vehicle id="115" depart="575.00">
        <route edges="-E0 -E3"/>
    </vehicle>
    <vehicle id="117" depart="585.00">
        <route edges="-E2 -E3"/>
    </vehicle>
    <vehicle id="120" depart="600.00">
        <route edges="-E5 -E4 -E0 E2"/>
    </vehicle>
    <vehicle id="121" depart="605.00">
        <route edges="-E6 E7"/>
    </vehicle>
    <vehicle id="122" depart="610.00">
        <route edges="-E2 E0 E4 E5"/>
    </vehicle>
    <vehicle id="123" depart="615.00">
        <route edges="-E2 E0"/>
    </vehicle>
    <vehicle id="124" depart="620.00">
        <route edges="-E7 -E4"/>
    </vehicle>
    <vehicle id="126" depart="630.00">
        <route edges="-E0 E1"/>
    </vehicle>
    <vehicle id="127" depart="635.00">
        <route edges="E4 E7"/>
    </vehicle>
    <vehicle id="129" depart="645.00">
        <route edges="-E2 E0 E4 E7"/>
    </vehicle>
    <vehicle id="130" depart="650.00">
        <route edges="E3 E0 E4 E6"/>
    </vehicle>
    <vehicle id="131" depart="655.00">
        <route edges="-E4 -E0 -E3"/>
    </vehicle>
    <vehicle id="132" depart="660.00">
        <route edges="E3 E0 E4 E5"/>
    </vehicle>
    <vehicle id="134" depart="670.00">
        <route edges="-E7 -E4 -E0"/>
    </vehicle>
    <vehicle id="137" depart="685.00">
        <route edges="-E1 -E3"/>
    </vehicle>
    <vehicle id="138" depart="690.00">
        <route edges="-E1 E2"/>
    </vehicle>
    <vehicle id="139" depart="695.00">
        <route edges="-E2 E0 E4"/>
    </vehicle>
    <vehicle id="141" depart="705.00">
        <route edges="-E7 -E4"/>
    </vehicle>
    <vehicle id="142" depart="710.00">
        <route edges="-E5 E7"/>
    </vehicle>
    <vehicle id="144" depart="720.00">
        <route edges="-E5 -E4"/>
    </vehicle>
    <vehicle id="146" depart="730.00">
        <route edges="-E7 -E4"/>
    </vehicle>
    <vehicle id="148" depart="740.00">
        <route edges="-E5 -E4 -E0"/>
    </vehicle>
    <vehicle id="151" depart="755.00">
        <route edges="E3 E2"/>
    </vehicle>
    <vehicle id="152" depart="760.00">
        <route edges="-E1 -E3"/>
    </vehicle>
    <vehicle id="154" depart="770.00">
        <route edges="E0 E4 E6"/>
    </vehicle>
    <vehicle id="156" depart="780.00">
        <route edges="-E2 -E3"/>
    </vehicle>
    <vehicle id="157" depart="785.00">
        <route edges="E0 E4 E6"/>
    </vehicle>
    <vehicle id="159" depart="795.00">
        <route edges="-E1 E0 E4 E7"/>
    </vehicle>
    <vehicle id="160" depart="800.00">
        <route edges="E3 E0 E4 E7"/>
    </vehicle>
    <vehicle id="161" depart="805.00">
        <route edges="E3 E0 E4 E6"/>
    </vehicle>
    <vehicle id="164" depart="820.00">
        <route edges="E3 E0 E4 E6"/>
    </vehicle>
    <vehicle id="167" depart="835.00">
        <route edges="E3 E0 E4 E6"/>
    </vehicle>
    <vehicle id="168" depart="840.00">
        <route edges="-E2 E0 E4 E6"/>
    </vehicle>
    <vehicle id="171" depart="855.00">
        <route edges="-E0 -E3"/>
    </vehicle>
    <vehicle id="180" depart="900.00">
        <route edges="E0"/>
    </vehicle>
    <vehicle id="181" depart="905.00">
        <route edges="-E7 -E4 -E0 E2"/>
    </vehicle>
    <vehicle id="182" depart="910.00">
        <route edges="-E4 -E0 E2"/>
    </vehicle>
    <vehicle id="183" depart="915.00">
        <route edges="-E2 E0 E4 E5"/>
    </vehicle>
    <vehicle id="185" depart="925.00">
        <route edges="-E6 E5"/>
    </vehicle>
    <vehicle id="186" depart="930.00">
        <route edges="E0 E4"/>
    </vehicle>
    <vehicle id="187" depart="935.00">
        <route edges="-E4 -E0"/>
    </vehicle>
    <vehicle id="190" depart="950.00">
        <route edges="E0"/>
    </vehicle>
    <vehicle id="191" depart="955.00">
        <route edges="-E4 -E0 E1"/>
    </vehicle>
    <vehicle id="192" depart="960.00">
        <route edges="-E5 -E4"/>
    </vehicle>
    <vehicle id="194" depart="970.00">
        <route edges="E4"/>
    </vehicle>
    <vehicle id="195" depart="975.00">
        <route edges="E4"/>
    </vehicle>
    <vehicle id="196" depart="980.00">
        <route edges="-E4 -E0 E2"/>
    </vehicle>
    <vehicle id="198" depart="990.00">
        <route edges="-E5 -E4 -E0 E2"/>
    </vehicle>
    <vehicle id="199" depart="995.00">
        <route edges="-E7 -E4 -E0 E1"/>
    </vehicle>
    <vehicle id="200" depart="1000.00">
        <route edges="-E5 -E4"/>
    </vehicle>
    <vehicle id="201" depart="1005.00">
        <route edges="-E5 E7"/>
    </vehicle>
    <vehicle id="203" depart="1015.00">
        <route edges="-E0 E2"/>
    </vehicle>
    <vehicle id="205" depart="1025.00">
        <route edges="E3 E0 E4 E5"/>
    </vehicle>
    <vehicle id="206" depart="1030.00">
        <route edges="-E7 -E4"/>
    </vehicle>
    <vehicle id="208" depart="1040.00">
        <route edges="-E2 E1"/>
    </vehicle>
    <vehicle id="211" depart="1055.00">
        <route edges="-E1 E0 E4"/>
    </vehicle>
    <vehicle id="212" depart="1060.00">
        <route edges="-E5 -E4"/>
    </vehicle>
    <vehicle id="213" depart="1065.00">
        <route edges="-E7 -E4 -E0"/>
    </vehicle>
    <vehicle id="214" depart="1070.00">
        <route edges="E0 E4 E5"/>
    </vehicle>
    <vehicle id="216" depart="1080.00">
        <route edges="-E1 E0 E4 E7"/>
    </vehicle>
    <vehicle id="217" depart="1085.00">
        <route edges="-E6 -E4 -E0"/>
    </vehicle>
    <vehicle id="218" depart="1090.00">
        <route edges="-E2 E0 E4 E6"/>
    </vehicle>
    <vehicle id="219" depart="1095.00">
        <route edges="-E5 E6"/>
    </vehicle>
    <vehicle id="221" depart="1105.00">
        <route edges="-E6 E7"/>
    </vehicle>
    <vehicle id="222" depart="1110.00">
        <route edges="E3 E0 E4"/>
    </vehicle>
    <vehicle id="224" depart="1120.00">
        <route edges="E3 E2"/>
    </vehicle>
    <vehicle id="225" depart="1125.00">
        <route edges="E3 E0 E4 E5"/>
    </vehicle>
    <vehicle id="226" depart="1130.00">
        <route edges="-E5 -E4"/>
    </vehicle>
    <vehicle id="227" depart="1135.00">
        <route edges="-E2 E0 E4"/>
    </vehicle>
    <vehicle id="229" depart="1145.00">
        <route edges="-E7 -E4"/>
    </vehicle>
    <vehicle id="231" depart="1155.00">
        <route edges="-E2 E0"/>
    </vehicle>
    <vehicle id="232" depart="1160.00">
        <route edges="-E6 -E4 -E0 -E3"/>
    </vehicle>
    <vehicle id="233" depart="1165.00">
        <route edges="-E2 E0 E4"/>
    </vehicle>
    <vehicle id="235" depart="1175.00">
        <route edges="-E5 -E4 -E0 E2"/>
    </vehicle>
    <vehicle id="236" depart="1180.00">
        <route edges="-E5 -E4"/>
    </vehicle>
    <vehicle id="237" depart="1185.00">
        <route edges="-E5 E7"/>
    </vehicle>
    <vehicle id="239" depart="1195.00">
        <route edges="E3 E0 E4 E5"/>
    </vehicle>
    <vehicle id="240" depart="1200.00">
        <route edges="-E4 -E0"/>
    </vehicle>
    <vehicle id="242" depart="1210.00">
        <route edges="E3 E0 E4 E7"/>
    </vehicle>
    <vehicle id="246" depart="1230.00">
        <route edges="-E5 -E4 -E0"/>
    </vehicle>
    <vehicle id="248" depart="1240.00">
        <route edges="-E5 -E4 -E0 -E3"/>
    </vehicle>
    <vehicle id="249" depart="1245.00">
        <route edges="-E5 -E4 -E0 -E3"/>
    </vehicle>
    <vehicle id="250" depart="1250.00">
        <route edges="-E7 -E4 -E0"/>
    </vehicle>
    <vehicle id="251" depart="1255.00">
        <route edges="-E4 -E0 E2"/>
    </vehicle>
    <vehicle id="255" depart="1275.00">
        <route edges="-E2 E0"/>
    </vehicle>
    <vehicle id="256" depart="1280.00">
        <route edges="E0"/>
    </vehicle>
    <vehicle id="257" depart="1285.00">
        <route edges="E0 E4 E6"/>
    </vehicle>
    <vehicle id="259" depart="1295.00">
        <route edges="-E0 E2"/>
    </vehicle>
    <vehicle id="261" depart="1305.00">
        <route edges="-E7 E5"/>
    </vehicle>
    <vehicle id="262" depart="1310.00">
        <route edges="-E7 E5"/>
    </vehicle>
    <vehicle id="264" depart="1320.00">
        <route edges="-E0 -E3"/>
    </vehicle>
    <vehicle id="265" depart="1325.00">
        <route edges="-E1 E0 E4"/>
    </vehicle>
    <vehicle id="266" depart="1330.00">
        <route edges="-E6 -E4"/>
    </vehicle>
    <vehicle id="267" depart="1335.00">
        <route edges="-E7 E5"/>
    </vehicle>
    <vehicle id="268" depart="1340.00">
        <route edges="-E1 E0 E4"/>
    </vehicle>
    <vehicle id="270" depart="1350.00">
        <route edges="E3 E0 E4 E7"/>
    </vehicle>
    <vehicle id="276" depart="1380.00">
        <route edges="-E1 E0 E4 E5"/>
    </vehicle>
    <vehicle id="277" depart="1385.00">
        <route edges="E3 E0 E4"/>
    </vehicle>
    <vehicle id="278" depart="1390.00">
        <route edges="-E1 E0 E4 E7"/>
    </vehicle>
    <vehicle id="279" depart="1395.00">
        <route edges="E0"/>
    </vehicle>
    <vehicle id="282" depart="1410.00">
        <route edges="E3 E0 E4 E6"/>
    </vehicle>
    <vehicle id="283" depart="1415.00">
        <route edges="-E1 E0 E4 E7"/>
    </vehicle>
    <vehicle id="284" depart="1420.00">
        <route edges="-E7 E6"/>
    </vehicle>
    <vehicle id="286" depart="1430.00">
        <route edges="E0 E4 E7"/>
    </vehicle>
    <vehicle id="287" depart="1435.00">
        <route edges="-E2 E0 E4 E6"/>
    </vehicle>
    <vehicle id="288" depart="1440.00">
        <route edges="-E6 -E4 -E0 E1"/>
    </vehicle>
    <vehicle id="290" depart="1450.00">
        <route edges="-E2 E0 E4 E6"/>
    </vehicle>
    <vehicle id="294" depart="1470.00">
        <route edges="-E4 -E0"/>
    </vehicle>
    <vehicle id="296" depart="1480.00">
        <route edges="-E2 E0 E4 E5"/>
    </vehicle>
    <vehicle id="306" depart="1530.00">
        <route edges="-E6 -E4 -E0 E1"/>
    </vehicle>
    <vehicle id="307" depart="1535.00">
        <route edges="-E6 -E4 -E0 E1"/>
    </vehicle>
    <vehicle id="308" depart="1540.00">
        <route edges="E0"/>
    </vehicle>
    <vehicle id="310" depart="1550.00">
        <route edges="-E2 -E3"/>
    </vehicle>
    <vehicle id="311" depart="1555.00">
        <route edges="-E1 -E3"/>
    </vehicle>
    <vehicle id="312" depart="1560.00">
        <route edges="-E6 E5"/>
    </vehicle>
    <vehicle id="316" depart="1580.00">
        <route edges="-E2 -E3"/>
    </vehicle>
    <vehicle id="319" depart="1595.00">
        <route edges="-E6 -E4"/>
    </vehicle>
    <vehicle id="321" depart="1605.00">
        <route edges="-E7 -E4 -E0 -E3"/>
    </vehicle>
    <vehicle id="322" depart="1610.00">
        <route edges="E3 E1"/>
    </vehicle>
    <vehicle id="323" depart="1615.00">
        <route edges="E3 E2"/>
    </vehicle>
    <vehicle id="324" depart="1620.00">
        <route edges="-E5 -E4 -E0 E1"/>
    </vehicle>
    <vehicle id="327" depart="1635.00">
        <route edges="E3 E1"/>
    </vehicle>
    <vehicle id="329" depart="1645.00">
        <route edges="-E0 -E3"/>
    </vehicle>
    <vehicle id="332" depart="1660.00">
        <route edges="E0 E4"/>
    </vehicle>
    <vehicle id="334" depart="1670.00">
        <route edges="-E6 -E4 -E0 E1"/>
    </vehicle>
    <vehicle id="335" depart="1675.00">
        <route edges="-E5 E6"/>
    </vehicle>
    <vehicle id="338" depart="1690.00">
        <route edges="E0 E4 E7"/>
    </vehicle>
    <vehicle id="340" depart="1700.00">
        <route edges="-E7 -E4 -E0 -E3"/>
    </vehicle>
    <vehicle id="342" depart="1710.00">
        <route edges="-E0 E1"/>
    </vehicle>
    <vehicle id="343" depart="1715.00">
        <route edges="-E6 -E4"/>
    </vehicle>
    <vehicle id="344" depart="1720.00">
        <route edges="-E2 E0 E4 E5"/>
    </vehicle>
    <vehicle id="347" depart="1735.00">
        <route edges="E0 E4"/>
    </vehicle>
    <vehicle id="349" depart="1745.00">
        <route edges="-E5 -E4 -E0 E2"/>
    </vehicle>
    <vehicle id="352" depart="1760.00">
        <route edges="-E1 E0"/>
    </vehicle>
    <vehicle id="354" depart="1770.00">
        <route edges="-E2 -E3"/>
    </vehicle>
    <vehicle id="357" depart="1785.00">
        <route edges="-E5 -E4 -E0"/>
    </vehicle>
    <vehicle id="358" depart="1790.00">
        <route edges="-E0 E1"/>
    </vehicle>
    <vehicle id="359" depart="1795.00">
        <route edges="-E4"/>
    </vehicle>
    <vehicle id="361" depart="1805.00">
        <route edges="E3 E2"/>
    </vehicle>
    <vehicle id="362" depart="1810.00">
        <route edges="E4 E7"/>
    </vehicle>
    <vehicle id="363" depart="1815.00">
        <route edges="-E7 -E4"/>
    </vehicle>
    <vehicle id="368" depart="1840.00">
        <route edges="-E5 -E4 -E0"/>
    </vehicle>
    <vehicle id="370" depart="1850.00">
        <route edges="-E7 E6"/>
    </vehicle>
    <vehicle id="372" depart="1860.00">
        <route edges="-E2 E0 E4 E7"/>
    </vehicle>
    <vehicle id="373" depart="1865.00">
        <route edges="E3 E2"/>
    </vehicle>
    <vehicle id="376" depart="1880.00">
        <route edges="-E5 -E4 -E0 E2"/>
    </vehicle>
    <vehicle id="377" depart="1885.00">
        <route edges="E4"/>
    </vehicle>
    <vehicle id="378" depart="1890.00">
        <route edges="-E6 -E4 -E0 E1"/>
    </vehicle>
    <vehicle id="379" depart="1895.00">
        <route edges="-E1 E0"/>
    </vehicle>
    <vehicle id="380" depart="1900.00">
        <route edges="E0 E4"/>
    </vehicle>
    <vehicle id="382" depart="1910.00">
        <route edges="-E6 E7"/>
    </vehicle>
    <vehicle id="384" depart="1920.00">
        <route edges="-E1 E0 E4 E7"/>
    </vehicle>
    <vehicle id="385" depart="1925.00">
        <route edges="-E7 -E4"/>
    </vehicle>
    <vehicle id="386" depart="1930.00">
        <route edges="-E1 E2"/>
    </vehicle>
    <vehicle id="387" depart="1935.00">
        <route edges="-E6 -E4 -E0"/>
    </vehicle>
    <vehicle id="388" depart="1940.00">
        <route edges="E4 E7"/>
    </vehicle>
    <vehicle id="389" depart="1945.00">
        <route edges="-E5 -E4 -E0 -E3"/>
    </vehicle>
    <vehicle id="390" depart="1950.00">
        <route edges="E3 E1"/>
    </vehicle>
    <vehicle id="392" depart="1960.00">
        <route edges="-E2 E0 E4 E6"/>
    </vehicle>
    <vehicle id="396" depart="1980.00">
        <route edges="E3 E0 E4 E6"/>
    </vehicle>
    <vehicle id="397" depart="1985.00">
        <route edges="-E2 E0 E4 E5"/>
    </vehicle>
    <vehicle id="398" depart="1990.00">
        <route edges="-E5 E7"/>
    </vehicle>
    <vehicle id="401" depart="2005.00">
        <route edges="-E6 E7"/>
    </vehicle>
    <vehicle id="402" depart="2010.00">
        <route edges="-E5 -E4 -E0 -E3"/>
    </vehicle>
    <vehicle id="404" depart="2020.00">
        <route edges="-E6 -E4 -E0 E2"/>
    </vehicle>
    <vehicle id="406" depart="2030.00">
        <route edges="-E1 E0 E4"/>
    </vehicle>
    <vehicle id="407" depart="2035.00">
        <route edges="-E6 -E4"/>
    </vehicle>
    <vehicle id="409" depart="2045.00">
        <route edges="E0 E4 E5"/>
    </vehicle>
    <vehicle id="410" depart="2050.00">
        <route edges="E3 E0"/>
    </vehicle>
    <vehicle id="411" depart="2055.00">
        <route edges="-E7 E6"/>
    </vehicle>
    <vehicle id="413" depart="2065.00">
        <route edges="-E0 E2"/>
    </vehicle>
    <vehicle id="415" depart="2075.00">
        <route edges="E3 E1"/>
    </vehicle>
    <vehicle id="416" depart="2080.00">
        <route edges="-E6 -E4 -E0 E1"/>
    </vehicle>
    <vehicle id="418" depart="2090.00">
        <route edges="-E7 -E4 -E0 -E3"/>
    </vehicle>
    <vehicle id="419" depart="2095.00">
        <route edges="-E5 E7"/>
    </vehicle>
    <vehicle id="421" depart="2105.00">
        <route edges="-E7 E6"/>
    </vehicle>
    <vehicle id="422" depart="2110.00">
        <route edges="E3 E0 E4 E6"/>
    </vehicle>
    <vehicle id="424" depart="2120.00">
        <route edges="E0 E4 E5"/>
    </vehicle>
    <vehicle id="427" depart="2135.00">
        <route edges="E4 E7"/>
    </vehicle>
    <vehicle id="430" depart="2150.00">
        <route edges="E3 E1"/>
    </vehicle>
    <vehicle id="433" depart="2165.00">
        <route edges="-E2 E0"/>
    </vehicle>
    <vehicle id="434" depart="2170.00">
        <route edges="-E1 E2"/>
    </vehicle>
    <vehicle id="435" depart="2175.00">
        <route edges="-E6 E5"/>
    </vehicle>
    <vehicle id="437" depart="2185.00">
        <route edges="E3 E0 E4"/>
    </vehicle>
    <vehicle id="438" depart="2190.00">
        <route edges="-E2 E0 E4 E7"/>
    </vehicle>
    <vehicle id="442" depart="2210.00">
        <route edges="E4"/>
    </vehicle>
    <vehicle id="444" depart="2220.00">
        <route edges="-E4 -E0 E2"/>
    </vehicle>
    <vehicle id="445" depart="2225.00">
        <route edges="-E7 -E4 -E0 E1"/>
    </vehicle>
    <vehicle id="446" depart="2230.00">
        <route edges="-E2 E0 E4 E6"/>
    </vehicle>
    <vehicle id="447" depart="2235.00">
        <route edges="-E1 E0"/>
    </vehicle>
    <vehicle id="448" depart="2240.00">
        <route edges="-E5 -E4"/>
    </vehicle>
    <vehicle id="449" depart="2245.00">
        <route edges="-E6 -E4 -E0 E2"/>
    </vehicle>
    <vehicle id="451" depart="2255.00">
        <route edges="E4"/>
    </vehicle>
    <vehicle id="453" depart="2265.00">
        <route edges="-E7 E5"/>
    </vehicle>
    <vehicle id="455" depart="2275.00">
        <route edges="-E5 E7"/>
    </vehicle>
    <vehicle id="456" depart="2280.00">
        <route edges="-E2 E0 E4 E5"/>
    </vehicle>
    <vehicle id="459" depart="2295.00">
        <route edges="-E7 E5"/>
    </vehicle>
    <vehicle id="460" depart="2300.00">
        <route edges="-E7 E6"/>
    </vehicle>
    <vehicle id="463" depart="2315.00">
        <route edges="-E5 -E4 -E0 E2"/>
    </vehicle>
    <vehicle id="465" depart="2325.00">
        <route edges="-E2 E0 E4 E5"/>
    </vehicle>
    <vehicle id="466" depart="2330.00">
        <route edges="-E1 -E3"/>
    </vehicle>
    <vehicle id="467" depart="2335.00">
        <route edges="-E6 E7"/>
    </vehicle>
    <vehicle id="468" depart="2340.00">
        <route edges="-E6 E7"/>
    </vehicle>
    <vehicle id="470" depart="2350.00">
        <route edges="E3 E1"/>
    </vehicle>
    <vehicle id="471" depart="2355.00">
        <route edges="E3 E0 E4 E5"/>
    </vehicle>
    <vehicle id="472" depart="2360.00">
        <route edges="-E4 -E0 -E3"/>
    </vehicle>
    <vehicle id="474" depart="2370.00">
        <route edges="E4 E6"/>
    </vehicle>
    <vehicle id="475" depart="2375.00">
        <route edges="E0 E4 E7"/>
    </vehicle>
    <vehicle id="476" depart="2380.00">
        <route edges="E4 E6"/>
    </vehicle>
    <vehicle id="478" depart="2390.00">
        <route edges="-E0 E2"/>
    </vehicle>
    <vehicle id="480" depart="2400.00">
        <route edges="-E7 -E4 -E0 E2"/>
    </vehicle>
    <vehicle id="481" depart="2405.00">
        <route edges="E3 E0 E4 E7"/>
    </vehicle>
    <vehicle id="484" depart="2420.00">
        <route edges="-E6 E7"/>
    </vehicle>
    <vehicle id="486" depart="2430.00">
        <route edges="E3 E0 E4 E7"/>
    </vehicle>
    <vehicle id="487" depart="2435.00">
        <route edges="-E4 -E0 E1"/>
    </vehicle>
    <vehicle id="488" depart="2440.00">
        <route edges="-E1 E0 E4 E7"/>
    </vehicle>
    <vehicle id="489" depart="2445.00">
        <route edges="-E4 -E0 E1"/>
    </vehicle>
    <vehicle id="492" depart="2460.00">
        <route edges="-E7 E5"/>
    </vehicle>
    <vehicle id="495" depart="2475.00">
        <route edges="-E5 -E4 -E0"/>
    </vehicle>
    <vehicle id="496" depart="2480.00">
        <route edges="-E5 -E4 -E0 E1"/>
    </vehicle>
    <vehicle id="498" depart="2490.00">
        <route edges="-E4 -E0 E1"/>
    </vehicle>
    <vehicle id="499" depart="2495.00">
        <route edges="E4 E6"/>
    </vehicle>
    <vehicle id="501" depart="2505.00">
        <route edges="-E6 E7"/>
    </vehicle>
    <vehicle id="503" depart="2515.00">
        <route edges="-E1 -E3"/>
    </vehicle>
    <vehicle id="504" depart="2520.00">
        <route edges="E3 E1"/>
    </vehicle>
    <vehicle id="506" depart="2530.00">
        <route edges="-E6 -E4 -E0"/>
    </vehicle>
    <vehicle id="508" depart="2540.00">
        <route edges="-E1 E2"/>
    </vehicle>
    <vehicle id="511" depart="2555.00">
        <route edges="E3 E0"/>
    </vehicle>
    <vehicle id="512" depart="2560.00">
        <route edges="-E1 E0 E4 E7"/>
    </vehicle>
    <vehicle id="514" depart="2570.00">
        <route edges="-E1 -E3"/>
    </vehicle>
    <vehicle id="515" depart="2575.00">
        <route edges="-E2 -E3"/>
    </vehicle>
    <vehicle id="516" depart="2580.00">
        <route edges="-E7 -E4 -E0"/>
    </vehicle>
    <vehicle id="518" depart="2590.00">
        <route edges="-E2 E0"/>
    </vehicle>
    <vehicle id="523" depart="2615.00">
        <route edges="-E1 E2"/>
    </vehicle>
    <vehicle id="525" depart="2625.00">
        <route edges="E0 E4 E6"/>
    </vehicle>
    <vehicle id="526" depart="2630.00">
        <route edges="-E6 -E4 -E0 E1"/>
    </vehicle>
    <vehicle id="528" depart="2640.00">
        <route edges="-E5 -E4 -E0 E1"/>
    </vehicle>
    <vehicle id="529" depart="2645.00">
        <route edges="-E7 -E4 -E0 E1"/>
    </vehicle>
    <vehicle id="533" depart="2665.00">
        <route edges="-E7 -E4 -E0 E2"/>
    </vehicle>
    <vehicle id="535" depart="2675.00">
        <route edges="-E6 -E4 -E0 E1"/>
    </vehicle>
    <vehicle id="536" depart="2680.00">
        <route edges="-E7 -E4 -E0"/>
    </vehicle>
    <vehicle id="537" depart="2685.00">
        <route edges="E0 E4 E6"/>
    </vehicle>
    <vehicle id="538" depart="2690.00">
        <route edges="-E7 E5"/>
    </vehicle>
    <vehicle id="540" depart="2700.00">
        <route edges="-E5 -E4"/>
    </vehicle>
    <vehicle id="541" depart="2705.00">
        <route edges="-E4 -E0 E1"/>
    </vehicle>
    <vehicle id="542" depart="2710.00">
        <route edges="-E5 -E4 -E0"/>
    </vehicle>
    <vehicle id="544" depart="2720.00">
        <route edges="-E4 -E0 -E3"/>
    </vehicle>
    <vehicle id="548" depart="2740.00">
        <route edges="E3 E2"/>
    </vehicle>
    <vehicle id="549" depart="2745.00">
        <route edges="-E6 -E4 -E0 E2"/>
    </vehicle>
    <vehicle id="550" depart="2750.00">
        <route edges="-E4 -E0 -E3"/>
    </vehicle>
    <vehicle id="552" depart="2760.00">
        <route edges="E0 E4 E6"/>
    </vehicle>
    <vehicle id="553" depart="2765.00">
        <route edges="E0 E4 E7"/>
    </vehicle>
    <vehicle id="555" depart="2775.00">
        <route edges="-E6 -E4"/>
    </vehicle>
    <vehicle id="556" depart="2780.00">
        <route edges="-E7 -E4"/>
    </vehicle>