<?xml version="1.0" encoding="UTF-8"?>

<!-- generated on 2022-09-12 22:17:36 by Eclipse SUMO netedit Version 1.14.1
<configuration xmlns:xsi="http://www.w3.org/2001/XMLSchema-instance" xsi:noNamespaceSchemaLocation="http://sumo.dlr.de/xsd/netconvertConfiguration.xsd">

    <input>
        <sumo-net-file value="D:\Code\Working\Sumo\Fixed\net.net.xml"/>
    </input>

    <output>
        <output-file value="D:\Code\Working\Sumo\Fixed\net.net.xml"/>
    </output>

    <processing>
        <geometry.min-radius.fix.railways value="false"/>
        <geometry.max-grade.fix value="false"/>
        <offset.disable-normalization value="true"/>
        <lefthand value="false"/>
    </processing>

    <junctions>
        <no-turnarounds value="true"/>
        <junctions.corner-detail value="5"/>
        <junctions.limit-turn-speed value="5.5"/>
        <rectangular-lane-cut value="false"/>
    </junctions>

    <pedestrian>
        <walkingareas value="false"/>
    </pedestrian>

</configuration>
-->

<net version="1.9" junctionCornerDetail="5" limitTurnSpeed="5.50" xmlns:xsi="http://www.w3.org/2001/XMLSchema-instance" xsi:noNamespaceSchemaLocation="http://sumo.dlr.de/xsd/net_file.xsd">

    <location netOffset="0.00,0.00" convBoundary="-100.00,-100.00,200.00,200.00" origBoundary="-10000000000.00,-10000000000.00,10000000000.00,10000000000.00" projParameter="!"/>

    <edge id=":J0_0" function="internal">
        <lane id=":J0_0_0" index="0" speed="6.51" length="9.03" shape="98.40,7.20 98.05,4.75 97.00,3.00 95.25,1.95 92.80,1.60"/>
    </edge>
    <edge id=":J0_1" function="internal">
        <lane id=":J0_1_0" index="0" speed="13.89" length="14.40" shape="98.40,7.20 98.40,-7.20"/>
    </edge>
    <edge id=":J0_2" function="internal">
        <lane id=":J0_2_0" index="0" speed="8.00" length="14.19" shape="98.40,7.20 98.95,3.35 100.60,0.60 103.35,-1.05 107.20,-1.60"/>
    </edge>
    <edge id=":J0_3" function="internal">
        <lane id=":J0_3_0" index="0" speed="6.51" length="9.03" shape="107.20,1.60 104.75,1.95 103.00,3.00 101.95,4.75 101.60,7.20"/>
    </edge>
    <edge id=":J0_4" function="internal">
        <lane id=":J0_4_0" index="0" speed="13.89" length="14.40" shape="107.20,1.60 92.80,1.60"/>
    </edge>
    <edge id=":J0_5" function="internal">
        <lane id=":J0_5_0" index="0" speed="8.00" length="14.19" shape="107.20,1.60 103.35,1.05 100.60,-0.60 98.95,-3.35 98.40,-7.20"/>
    </edge>
    <edge id=":J0_6" function="internal">
        <lane id=":J0_6_0" index="0" speed="6.51" length="9.03" shape="101.60,-7.20 101.95,-4.75 103.00,-3.00 104.75,-1.95 107.20,-1.60"/>
    </edge>
    <edge id=":J0_7" function="internal">
        <lane id=":J0_7_0" index="0" speed="13.89" length="14.40" shape="101.60,-7.20 101.60,7.20"/>
    </edge>
    <edge id=":J0_8" function="internal">
        <lane id=":J0_8_0" index="0" speed="8.00" length="14.19" shape="101.60,-7.20 101.05,-3.35 99.40,-0.60 96.65,1.05 92.80,1.60"/>
    </edge>
    <edge id=":J0_9" function="internal">
        <lane id=":J0_9_0" index="0" speed="6.51" length="9.03" shape="92.80,-1.60 95.25,-1.95 97.00,-3.00 98.05,-4.75 98.40,-7.20"/>
    </edge>
    <edge id=":J0_10" function="internal">
        <lane id=":J0_10_0" index="0" speed="13.89" length="14.40" shape="92.80,-1.60 107.20,-1.60"/>
    </edge>
    <edge id=":J0_11" function="internal">
        <lane id=":J0_11_0" index="0" speed="8.00" length="14.19" shape="92.80,-1.60 96.65,-1.05 99.40,0.60 101.05,3.35 101.60,7.20"/>
    </edge>
    <edge id=":J1_0" function="internal">
        <lane id=":J1_0_0" index="0" speed="6.51" length="9.03" shape="98.40,107.20 98.05,104.75 97.00,103.00 95.25,101.95 92.80,101.60"/>
    </edge>
    <edge id=":J1_1" function="internal">
        <lane id=":J1_1_0" index="0" speed="13.89" length="14.40" shape="98.40,107.20 98.40,92.80"/>
    </edge>
    <edge id=":J1_2" function="internal">
        <lane id=":J1_2_0" index="0" speed="8.00" length="14.19" shape="98.40,107.20 98.95,103.35 100.60,100.60 103.35,98.95 107.20,98.40"/>
    </edge>
    <edge id=":J1_3" function="internal">
        <lane id=":J1_3_0" index="0" speed="6.51" length="9.03" shape="107.20,101.60 104.75,101.95 103.00,103.00 101.95,104.75 101.60,107.20"/>
    </edge>
    <edge id=":J1_4" function="internal">
        <lane id=":J1_4_0" index="0" speed="13.89" length="14.40" shape="107.20,101.60 92.80,101.60"/>
    </edge>
    <edge id=":J1_5" function="internal">
        <lane id=":J1_5_0" index="0" speed="8.00" length="14.19" shape="107.20,101.60 103.35,101.05 100.60,99.40 98.95,96.65 98.40,92.80"/>
    </edge>
    <edge id=":J1_6" function="internal">
        <lane id=":J1_6_0" index="0" speed="6.51" length="9.03" shape="101.60,92.80 101.95,95.25 103.00,97.00 104.75,98.05 107.20,98.40"/>
    </edge>
    <edge id=":J1_7" function="internal">
        <lane id=":J1_7_0" index="0" speed="13.89" length="14.40" shape="101.60,92.80 101.60,107.20"/>
    </edge>
    <edge id=":J1_8" function="internal">
        <lane id=":J1_8_0" index="0" speed="8.00" length="14.19" shape="101.60,92.80 101.05,96.65 99.40,99.40 96.65,101.05 92.80,101.60"/>
    </edge>
    <edge id=":J1_9" function="internal">
        <lane id=":J1_9_0" index="0" speed="6.51" length="9.03" shape="92.80,98.40 95.25,98.05 97.00,97.00 98.05,95.25 98.40,92.80"/>
    </edge>
    <edge id=":J1_10" function="internal">
        <lane id=":J1_10_0" index="0" speed="13.89" length="14.40" shape="92.80,98.40 107.20,98.40"/>
    </edge>
    <edge id=":J1_11" function="internal">
        <lane id=":J1_11_0" index="0" speed="8.00" length="14.19" shape="92.80,98.40 96.65,98.95 99.40,100.60 101.05,103.35 101.60,107.20"/>
    </edge>
    <edge id=":J2_0" function="internal">
        <lane id=":J2_0_0" index="0" speed="6.51" length="9.03" shape="-1.60,107.20 -1.95,104.75 -3.00,103.00 -4.75,101.95 -7.20,101.60"/>
    </edge>
    <edge id=":J2_1" function="internal">
        <lane id=":J2_1_0" index="0" speed="13.89" length="14.40" shape="-1.60,107.20 -1.60,92.80"/>
    </edge>
    <edge id=":J2_2" function="internal">
        <lane id=":J2_2_0" index="0" speed="8.00" length="14.19" shape="-1.60,107.20 -1.05,103.35 0.60,100.60 3.35,98.95 7.20,98.40"/>
    </edge>
    <edge id=":J2_3" function="internal">
        <lane id=":J2_3_0" index="0" speed="6.51" length="9.03" shape="7.20,101.60 4.75,101.95 3.00,103.00 1.95,104.75 1.60,107.20"/>
    </edge>
    <edge id=":J2_4" function="internal">
        <lane id=":J2_4_0" index="0" speed="13.89" length="14.40" shape="7.20,101.60 -7.20,101.60"/>
    </edge>
    <edge id=":J2_5" function="internal">
        <lane id=":J2_5_0" index="0" speed="8.00" length="14.19" shape="7.20,101.60 3.35,101.05 0.60,99.40 -1.05,96.65 -1.60,92.80"/>
    </edge>
    <edge id=":J2_6" function="internal">
        <lane id=":J2_6_0" index="0" speed="6.51" length="9.03" shape="1.60,92.80 1.95,95.25 3.00,97.00 4.75,98.05 7.20,98.40"/>
    </edge>
    <edge id=":J2_7" function="internal">
        <lane id=":J2_7_0" index="0" speed="13.89" length="14.40" shape="1.60,92.80 1.60,107.20"/>
    </edge>
    <edge id=":J2_8" function="internal">
        <lane id=":J2_8_0" index="0" speed="8.00" length="14.19" shape="1.60,92.80 1.05,96.65 -0.60,99.40 -3.35,101.05 -7.20,101.60"/>
    </edge>
    <edge id=":J2_9" function="internal">
        <lane id=":J2_9_0" index="0" speed="6.51" length="9.03" shape="-7.20,98.40 -4.75,98.05 -3.00,97.00 -1.95,95.25 -1.60,92.80"/>
    </edge>
    <edge id=":J2_10" function="internal">
        <lane id=":J2_10_0" index="0" speed="13.89" length="14.40" shape="-7.20,98.40 7.20,98.40"/>
    </edge>
    <edge id=":J2_11" function="internal">
        <lane id=":J2_11_0" index="0" speed="8.00" length="14.19" shape="-7.20,98.40 -3.35,98.95 -0.60,100.60 1.05,103.35 1.60,107.20"/>
    </edge>
    <edge id=":J3_0" function="internal">
        <lane id=":J3_0_0" index="0" speed="6.51" length="9.03" shape="-1.60,7.20 -1.95,4.75 -3.00,3.00 -4.75,1.95 -7.20,1.60"/>
    </edge>
    <edge id=":J3_1" function="internal">
        <lane id=":J3_1_0" index="0" speed="13.89" length="14.40" shape="-1.60,7.20 -1.60,-7.20"/>
    </edge>
    <edge id=":J3_2" function="internal">
        <lane id=":J3_2_0" index="0" speed="8.00" length="14.19" shape="-1.60,7.20 -1.05,3.35 0.60,0.60 3.35,-1.05 7.20,-1.60"/>
    </edge>
    <edge id=":J3_3" function="internal">
        <lane id=":J3_3_0" index="0" speed="6.51" length="9.03" shape="7.20,1.60 4.75,1.95 3.00,3.00 1.95,4.75 1.60,7.20"/>
    </edge>
    <edge id=":J3_4" function="internal">
        <lane id=":J3_4_0" index="0" speed="13.89" length="14.40" shape="7.20,1.60 -7.20,1.60"/>
    </edge>
    <edge id=":J3_5" function="internal">
        <lane id=":J3_5_0" index="0" speed="8.00" length="14.19" shape="7.20,1.60 3.35,1.05 0.60,-0.60 -1.05,-3.35 -1.60,-7.20"/>
    </edge>
    <edge id=":J3_6" function="internal">
        <lane id=":J3_6_0" index="0" speed="6.51" length="9.03" shape="1.60,-7.20 1.95,-4.75 3.00,-3.00 4.75,-1.95 7.20,-1.60"/>
    </edge>
    <edge id=":J3_7" function="internal">
        <lane id=":J3_7_0" index="0" speed="13.89" length="14.40" shape="1.60,-7.20 1.60,7.20"/>
    </edge>
    <edge id=":J3_8" function="internal">
        <lane id=":J3_8_0" index="0" speed="8.00" length="14.19" shape="1.60,-7.20 1.05,-3.35 -0.60,-0.60 -3.35,1.05 -7.20,1.60"/>
    </edge>
    <edge id=":J3_9" function="internal">
        <lane id=":J3_9_0" index="0" speed="6.51" length="9.03" shape="-7.20,-1.60 -4.75,-1.95 -3.00,-3.00 -1.95,-4.75 -1.60,-7.20"/>
    </edge>
    <edge id=":J3_10" function="internal">
        <lane id=":J3_10_0" index="0" speed="13.89" length="14.40" shape="-7.20,-1.60 7.20,-1.60"/>
    </edge>
    <edge id=":J3_11" function="internal">
        <lane id=":J3_11_0" index="0" speed="8.00" length="14.19" shape="-7.20,-1.60 -3.35,-1.05 -0.60,0.60 1.05,3.35 1.60,7.20"/>
    </edge>

    <edge id="-E0" from="J1" to="J0" priority="-1">
        <lane id="-E0_0" index="0" speed="13.89" length="85.60" shape="98.40,92.80 98.40,7.20"/>
    </edge>
    <edge id="-E1" from="J2" to="J1" priority="-1">
        <lane id="-E1_0" index="0" speed="13.89" length="85.60" shape="7.20,98.40 92.80,98.40"/>
    </edge>
    <edge id="-E10" from="J10" to="J1" priority="-1">
        <lane id="-E10_0" index="0" speed="13.89" length="92.80" shape="98.40,200.00 98.40,107.20"/>
    </edge>
    <edge id="-E11" from="J11" to="J1" priority="-1">
        <lane id="-E11_0" index="0" speed="13.89" length="92.80" shape="200.00,101.60 107.20,101.60"/>
    </edge>
    <edge id="-E2" from="J3" to="J2" priority="-1">
        <lane id="-E2_0" index="0" speed="13.89" length="85.60" shape="1.60,7.20 1.60,92.80"/>
    </edge>
    <edge id="-E3" from="J0" to="J3" priority="-1">
        <lane id="-E3_0" index="0" speed="13.89" length="85.60" shape="92.80,1.60 7.20,1.60"/>
    </edge>
    <edge id="-E4" from="J4" to="J0" priority="-1">
        <lane id="-E4_0" index="0" speed="13.89" length="92.80" shape="200.00,1.60 107.20,1.60"/>
    </edge>
    <edge id="-E5" from="J0" to="J5" priority="-1">
        <lane id="-E5_0" index="0" speed="13.89" length="92.80" shape="98.40,-7.20 98.40,-100.00"/>
    </edge>
    <edge id="-E6" from="J3" to="J6" priority="-1">
        <lane id="-E6_0" index="0" speed="13.89" length="92.80" shape="-1.60,-7.20 -1.60,-100.00"/>
    </edge>
    <edge id="-E7" from="J7" to="J3" priority="-1">
        <lane id="-E7_0" index="0" speed="13.89" length="92.80" shape="-100.00,-1.60 -7.20,-1.60"/>
    </edge>
    <edge id="-E8" from="J8" to="J2" priority="-1">
        <lane id="-E8_0" index="0" speed="13.89" length="92.80" shape="-100.00,98.40 -7.20,98.40"/>
    </edge>
    <edge id="-E9" from="J9" to="J2" priority="-1">
        <lane id="-E9_0" index="0" speed="13.89" length="92.80" shape="-1.60,200.00 -1.60,107.20"/>
    </edge>
    <edge id="E0" from="J0" to="J1" priority="-1">
        <lane id="E0_0" index="0" speed="13.89" length="85.60" shape="101.60,7.20 101.60,92.80"/>
    </edge>
    <edge id="E1" from="J1" to="J2" priority="-1">
        <lane id="E1_0" index="0" speed="13.89" length="85.60" shape="92.80,101.60 7.20,101.60"/>
    </edge>
    <edge id="E10" from="J1" to="J10" priority="-1">
        <lane id="E10_0" index="0" speed="13.89" length="92.80" shape="101.60,107.20 101.60,200.00"/>
    </edge>
    <edge id="E11" from="J1" to="J11" priority="-1">
        <lane id="E11_0" index="0" speed="13.89" length="92.80" shape="107.20,98.40 200.00,98.40"/>
    </edge>
    <edge id="E2" from="J2" to="J3" priority="-1">
        <lane id="E2_0" index="0" speed="13.89" length="85.60" shape="-1.60,92.80 -1.60,7.20"/>
    </edge>
    <edge id="E3" from="J3" to="J0" priority="-1">
        <lane id="E3_0" index="0" speed="13.89" length="85.60" shape="7.20,-1.60 92.80,-1.60"/>
    </edge>
    <edge id="E4" from="J0" to="J4" priority="-1">
        <lane id="E4_0" index="0" speed="13.89" length="92.80" shape="107.20,-1.60 200.00,-1.60"/>
    </edge>
    <edge id="E5" from="J5" to="J0" priority="-1">
        <lane id="E5_0" index="0" speed="13.89" length="92.80" shape="101.60,-100.00 101.60,-7.20"/>
    </edge>
    <edge id="E6" from="J6" to="J3" priority="-1">
        <lane id="E6_0" index="0" speed="13.89" length="92.80" shape="1.60,-100.00 1.60,-7.20"/>
    </edge>
    <edge id="E7" from="J3" to="J7" priority="-1">
        <lane id="E7_0" index="0" speed="13.89" length="92.80" shape="-7.20,1.60 -100.00,1.60"/>
    </edge>
    <edge id="E8" from="J2" to="J8" priority="-1">
        <lane id="E8_0" index="0" speed="13.89" length="92.80" shape="-7.20,101.60 -100.00,101.60"/>
    </edge>
    <edge id="E9" from="J2" to="J9" priority="-1">
        <lane id="E9_0" index="0" speed="13.89" length="92.80" shape="1.60,107.20 1.60,200.00"/>
    </edge>

    <tlLogic id="J0" type="static" programID="0" offset="0">
        <phase duration="42" state="GGgrrrrrrrrr"/>
        <phase duration="3"  state="yyyrrrrrrrrr"/>
        <phase duration="42" state="rrrGGgrrrrrr"/>
        <phase duration="3"  state="rrryyyrrrrrr"/>
        <phase duration="42" state="rrrrrrGGgrrr"/>
        <phase duration="3"  state="rrrrrryyyrrr"/>
        <phase duration="42" state="rrrrrrrrrGGg"/>
        <phase duration="3"  state="rrrrrrrrryyy"/>
    </tlLogic>
    <tlLogic id="J1" type="static" programID="0" offset="0">
        <phase duration="42" state="GGgrrrrrrrrr"/>
        <phase duration="3"  state="yyyrrrrrrrrr"/>
        <phase duration="42" state="rrrGGgrrrrrr"/>
        <phase duration="3"  state="rrryyyrrrrrr"/>
        <phase duration="42" state="rrrrrrGGgrrr"/>
        <phase duration="3"  state="rrrrrryyyrrr"/>
        <phase duration="42" state="rrrrrrrrrGGg"/>
        <phase duration="3"  state="rrrrrrrrryyy"/>
    </tlLogic>
    <tlLogic id="J2" type="static" programID="0" offset="0">
        <phase duration="42" state="GGgrrrrrrrrr"/>
        <phase duration="3"  state="yyyrrrrrrrrr"/>
        <phase duration="42" state="rrrGGgrrrrrr"/>
        <phase duration="3"  state="rrryyyrrrrrr"/>
        <phase duration="42" state="rrrrrrGGgrrr"/>
        <phase duration="3"  state="rrrrrryyyrrr"/>
        <phase duration="42" state="rrrrrrrrrGGg"/>
        <phase duration="3"  state="rrrrrrrrryyy"/>
    </tlLogic>
    <tlLogic id="J3" type="static" programID="0" offset="0">
        <phase duration="42" state="GGgrrrrrrrrr"/>
        <phase duration="3"  state="yyyrrrrrrrrr"/>
        <phase duration="42" state="rrrGGgrrrrrr"/>
        <phase duration="3"  state="rrryyyrrrrrr"/>
        <phase duration="42" state="rrrrrrGGgrrr"/>
        <phase duration="3"  state="rrrrrryyyrrr"/>
        <phase duration="42" state="rrrrrrrrrGGg"/>
        <phase duration="3"  state="rrrrrrrrryyy"/>
    </tlLogic>

    <junction id="J0" type="traffic_light" x="100.00" y="0.00" incLanes="-E0_0 -E4_0 E5_0 E3_0" intLanes=":J0_0_0 :J0_1_0 :J0_2_0 :J0_3_0 :J0_4_0 :J0_5_0 :J0_6_0 :J0_7_0 :J0_8_0 :J0_9_0 :J0_10_0 :J0_11_0" shape="96.80,7.20 103.20,7.20 103.64,4.98 104.20,4.20 104.98,3.64 105.98,3.31 107.20,3.20 107.20,-3.20 104.98,-3.64 104.20,-4.20 103.64,-4.98 103.31,-5.98 103.20,-7.20 96.80,-7.20 96.36,-4.98 95.80,-4.20 95.02,-3.64 94.02,-3.31 92.80,-3.20 92.80,3.20 95.02,3.64 95.80,4.20 96.36,4.98 96.69,5.98">
        <request index="0"  response="000000000000" foes="000100010000" cont="0"/>
        <request index="1"  response="000000000000" foes="111100110000" cont="0"/>
        <request index="2"  response="000111000000" foes="110111110000" cont="0"/>
        <request index="3"  response="000010000000" foes="100010000000" cont="0"/>
        <request index="4"  response="000110000111" foes="100110000111" cont="0"/>
        <request index="5"  response="111110000110" foes="111110000110" cont="0"/>
        <request index="6"  response="000000000000" foes="010000000100" cont="0"/>
        <request index="7"  response="000000000000" foes="110000111100" cont="0"/>
        <request index="8"  response="000000000011" foes="110000110111" cont="0"/>
        <request index="9"  response="000000000010" foes="000000100010" cont="0"/>
        <request index="10" response="000111000110" foes="000111100110" cont="0"/>
        <request index="11" response="000110011110" foes="000110111110" cont="0"/>
    </junction>
    <junction id="J1" type="traffic_light" x="100.00" y="100.00" incLanes="-E10_0 -E11_0 E0_0 -E1_0" intLanes=":J1_0_0 :J1_1_0 :J1_2_0 :J1_3_0 :J1_4_0 :J1_5_0 :J1_6_0 :J1_7_0 :J1_8_0 :J1_9_0 :J1_10_0 :J1_11_0" shape="96.80,107.20 103.20,107.20 103.64,104.98 104.20,104.20 104.98,103.64 105.98,103.31 107.20,103.20 107.20,96.80 104.98,96.36 104.20,95.80 103.64,95.02 103.31,94.02 103.20,92.80 96.80,92.80 96.36,95.02 95.80,95.80 95.02,96.36 94.02,96.69 92.80,96.80 92.80,103.20 95.02,103.64 95.80,104.20 96.36,104.98 96.69,105.98">
        <request index="0"  response="000000000000" foes="000100010000" cont="0"/>
        <request index="1"  response="000000000000" foes="111100110000" cont="0"/>
        <request index="2"  response="000111000000" foes="110111110000" cont="0"/>
        <request index="3"  response="000010000000" foes="100010000000" cont="0"/>
        <request index="4"  response="000110000111" foes="100110000111" cont="0"/>
        <request index="5"  response="011110000110" foes="111110000110" cont="0"/>
        <request index="6"  response="000000000000" foes="010000000100" cont="0"/>
        <request index="7"  response="000000000000" foes="110000111100" cont="0"/>
        <request index="8"  response="000000000011" foes="110000110111" cont="0"/>
        <request index="9"  response="000000000010" foes="000000100010" cont="0"/>
        <request index="10" response="000111000110" foes="000111100110" cont="0"/>
        <request index="11" response="000110111110" foes="000110111110" cont="0"/>
    </junction>
    <junction id="J10" type="dead_end" x="100.00" y="200.00" incLanes="E10_0" intLanes="" shape="100.00,200.00 103.20,200.00 100.00,200.00"/>
    <junction id="J11" type="dead_end" x="200.00" y="100.00" incLanes="E11_0" intLanes="" shape="200.00,100.00 200.00,96.80 200.00,100.00"/>
    <junction id="J2" type="traffic_light" x="0.00" y="100.00" incLanes="-E9_0 E1_0 -E2_0 -E8_0" intLanes=":J2_0_0 :J2_1_0 :J2_2_0 :J2_3_0 :J2_4_0 :J2_5_0 :J2_6_0 :J2_7_0 :J2_8_0 :J2_9_0 :J2_10_0 :J2_11_0" shape="-3.20,107.20 3.20,107.20 3.64,104.98 4.20,104.20 4.98,103.64 5.98,103.31 7.20,103.20 7.20,96.80 4.98,96.36 4.20,95.80 3.64,95.02 3.31,94.02 3.20,92.80 -3.20,92.80 -3.64,95.02 -4.20,95.80 -4.98,96.36 -5.98,96.69 -7.20,96.80 -7.20,103.20 -4.98,103.64 -4.20,104.20 -3.64,104.98 -3.31,105.98">
        <request index="0"  response="000000000000" foes="000100010000" cont="0"/>
        <request index="1"  response="000000000000" foes="111100110000" cont="0"/>
        <request index="2"  response="000011000000" foes="110111110000" cont="0"/>
        <request index="3"  response="000010000000" foes="100010000000" cont="0"/>
        <request index="4"  response="000110000111" foes="100110000111" cont="0"/>
        <request index="5"  response="011110000110" foes="111110000110" cont="0"/>
        <request index="6"  response="000000000000" foes="010000000100" cont="0"/>
        <request index="7"  response="000000000000" foes="110000111100" cont="0"/>
        <request index="8"  response="000000000111" foes="110000110111" cont="0"/>
        <request index="9"  response="000000000010" foes="000000100010" cont="0"/>
        <request index="10" response="000111000110" foes="000111100110" cont="0"/>
        <request index="11" response="000110111110" foes="000110111110" cont="0"/>
    </junction>
    <junction id="J3" type="traffic_light" x="0.00" y="0.00" incLanes="E2_0 -E3_0 E6_0 -E7_0" intLanes=":J3_0_0 :J3_1_0 :J3_2_0 :J3_3_0 :J3_4_0 :J3_5_0 :J3_6_0 :J3_7_0 :J3_8_0 :J3_9_0 :J3_10_0 :J3_11_0" shape="-3.20,7.20 3.20,7.20 3.64,4.98 4.20,4.20 4.98,3.64 5.98,3.31 7.20,3.20 7.20,-3.20 4.98,-3.64 4.20,-4.20 3.64,-4.98 3.31,-5.98 3.20,-7.20 -3.20,-7.20 -3.64,-4.98 -4.20,-4.20 -4.98,-3.64 -5.98,-3.31 -7.20,-3.20 -7.20,3.20 -4.98,3.64 -4.20,4.20 -3.64,4.98 -3.31,5.98">
        <request index="0"  response="000000000000" foes="000100010000" cont="0"/>
        <request index="1"  response="000000000000" foes="111100110000" cont="0"/>
        <request index="2"  response="000111000000" foes="110111110000" cont="0"/>
        <request index="3"  response="000010000000" foes="100010000000" cont="0"/>
        <request index="4"  response="000110000111" foes="100110000111" cont="0"/>
        <request index="5"  response="111110000110" foes="111110000110" cont="0"/>
        <request index="6"  response="000000000000" foes="010000000100" cont="0"/>
        <request index="7"  response="000000000000" foes="110000111100" cont="0"/>
        <request index="8"  response="000000000011" foes="110000110111" cont="0"/>
        <request index="9"  response="000000000010" foes="000000100010" cont="0"/>
        <request index="10" response="000111000110" foes="000111100110" cont="0"/>
        <request index="11" response="000110011110" foes="000110111110" cont="0"/>
    </junction>
    <junction id="J4" type="dead_end" x="200.00" y="0.00" incLanes="E4_0" intLanes="" shape="200.00,0.00 200.00,-3.20 200.00,0.00"/>
    <junction id="J5" type="dead_end" x="100.00" y="-100.00" incLanes="-E5_0" intLanes="" shape="100.00,-100.00 96.80,-100.00 100.00,-100.00"/>
    <junction id="J6" type="dead_end" x="0.00" y="-100.00" incLanes="-E6_0" intLanes="" shape="0.00,-100.00 -3.20,-100.00 0.00,-100.00"/>
    <junction id="J7" type="dead_end" x="-100.00" y="0.00" incLanes="E7_0" intLanes="" shape="-100.00,0.00 -100.00,3.20 -100.00,0.00"/>
    <junction id="J8" type="dead_end" x="-100.00" y="100.00" incLanes="E8_0" intLanes="" shape="-100.00,100.00 -100.00,103.20 -100.00,100.00"/>
    <junction id="J9" type="dead_end" x="0.00" y="200.00" incLanes="E9_0" intLanes="" shape="0.00,200.00 3.20,200.00 0.00,200.00"/>

    <connection from="-E0" to="-E3" fromLane="0" toLane="0" via=":J0_0_0" tl="J0" linkIndex="0" dir="r" state="O"/>
    <connection from="-E0" to="-E5" fromLane="0" toLane="0" via=":J0_1_0" tl="J0" linkIndex="1" dir="s" state="O"/>
    <connection from="-E0" to="E4" fromLane="0" toLane="0" via=":J0_2_0" tl="J0" linkIndex="2" dir="l" state="o"/>
    <connection from="-E1" to="-E0" fromLane="0" toLane="0" via=":J1_9_0" tl="J1" linkIndex="9" dir="r" state="o"/>
    <connection from="-E1" to="E11" fromLane="0" toLane="0" via=":J1_10_0" tl="J1" linkIndex="10" dir="s" state="o"/>
    <connection from="-E1" to="E10" fromLane="0" toLane="0" via=":J1_11_0" tl="J1" linkIndex="11" dir="l" state="o"/>
    <connection from="-E10" to="E1" fromLane="0" toLane="0" via=":J1_0_0" tl="J1" linkIndex="0" dir="r" state="O"/>
    <connection from="-E10" to="-E0" fromLane="0" toLane="0" via=":J1_1_0" tl="J1" linkIndex="1" dir="s" state="O"/>
    <connection from="-E10" to="E11" fromLane="0" toLane="0" via=":J1_2_0" tl="J1" linkIndex="2" dir="l" state="o"/>
    <connection from="-E11" to="E10" fromLane="0" toLane="0" via=":J1_3_0" tl="J1" linkIndex="3" dir="r" state="o"/>
    <connection from="-E11" to="E1" fromLane="0" toLane="0" via=":J1_4_0" tl="J1" linkIndex="4" dir="s" state="o"/>
    <connection from="-E11" to="-E0" fromLane="0" toLane="0" via=":J1_5_0" tl="J1" linkIndex="5" dir="l" state="o"/>
    <connection from="-E2" to="-E1" fromLane="0" toLane="0" via=":J2_6_0" tl="J2" linkIndex="6" dir="r" state="O"/>
    <connection from="-E2" to="E9" fromLane="0" toLane="0" via=":J2_7_0" tl="J2" linkIndex="7" dir="s" state="O"/>
    <connection from="-E2" to="E8" fromLane="0" toLane="0" via=":J2_8_0" tl="J2" linkIndex="8" dir="l" state="o"/>
    <connection from="-E3" to="-E2" fromLane="0" toLane="0" via=":J3_3_0" tl="J3" linkIndex="3" dir="r" state="o"/>
    <connection from="-E3" to="E7" fromLane="0" toLane="0" via=":J3_4_0" tl="J3" linkIndex="4" dir="s" state="o"/>
    <connection from="-E3" to="-E6" fromLane="0" toLane="0" via=":J3_5_0" tl="J3" linkIndex="5" dir="l" state="o"/>
    <connection from="-E4" to="E0" fromLane="0" toLane="0" via=":J0_3_0" tl="J0" linkIndex="3" dir="r" state="o"/>
    <connection from="-E4" to="-E3" fromLane="0" toLane="0" via=":J0_4_0" tl="J0" linkIndex="4" dir="s" state="o"/>
    <connection from="-E4" to="-E5" fromLane="0" toLane="0" via=":J0_5_0" tl="J0" linkIndex="5" dir="l" state="o"/>
    <connection from="-E7" to="-E6" fromLane="0" toLane="0" via=":J3_9_0" tl="J3" linkIndex="9" dir="r" state="o"/>
    <connection from="-E7" to="E3" fromLane="0" toLane="0" via=":J3_10_0" tl="J3" linkIndex="10" dir="s" state="o"/>
    <connection from="-E7" to="-E2" fromLane="0" toLane="0" via=":J3_11_0" tl="J3" linkIndex="11" dir="l" state="o"/>
    <connection from="-E8" to="E2" fromLane="0" toLane="0" via=":J2_9_0" tl="J2" linkIndex="9" dir="r" state="o"/>
    <connection from="-E8" to="-E1" fromLane="0" toLane="0" via=":J2_10_0" tl="J2" linkIndex="10" dir="s" state="o"/>
    <connection from="-E8" to="E9" fromLane="0" toLane="0" via=":J2_11_0" tl="J2" linkIndex="11" dir="l" state="o"/>
    <connection from="-E9" to="E8" fromLane="0" toLane="0" via=":J2_0_0" tl="J2" linkIndex="0" dir="r" state="O"/>
    <connection from="-E9" to="E2" fromLane="0" toLane="0" via=":J2_1_0" tl="J2" linkIndex="1" dir="s" state="O"/>
    <connection from="-E9" to="-E1" fromLane="0" toLane="0" via=":J2_2_0" tl="J2" linkIndex="2" dir="l" state="o"/>
    <connection from="E0" to="E11" fromLane="0" toLane="0" via=":J1_6_0" tl="J1" linkIndex="6" dir="r" state="O"/>
    <connection from="E0" to="E10" fromLane="0" toLane="0" via=":J1_7_0" tl="J1" linkIndex="7" dir="s" state="O"/>
    <connection from="E0" to="E1" fromLane="0" toLane="0" via=":J1_8_0" tl="J1" linkIndex="8" dir="l" state="o"/>
    <connection from="E1" to="E9" fromLane="0" toLane="0" via=":J2_3_0" tl="J2" linkIndex="3" dir="r" state="o"/>
    <connection from="E1" to="E8" fromLane="0" toLane="0" via=":J2_4_0" tl="J2" linkIndex="4" dir="s" state="o"/>
    <connection from="E1" to="E2" fromLane="0" toLane="0" via=":J2_5_0" tl="J2" linkIndex="5" dir="l" state="o"/>
    <connection from="E2" to="E7" fromLane="0" toLane="0" via=":J3_0_0" tl="J3" linkIndex="0" dir="r" state="O"/>
    <connection from="E2" to="-E6" fromLane="0" toLane="0" via=":J3_1_0" tl="J3" linkIndex="1" dir="s" state="O"/>
    <connection from="E2" to="E3" fromLane="0" toLane="0" via=":J3_2_0" tl="J3" linkIndex="2" dir="l" state="o"/>
    <connection from="E3" to="-E5" fromLane="0" toLane="0" via=":J0_9_0" tl="J0" linkIndex="9" dir="r" state="o"/>
    <connection from="E3" to="E4" fromLane="0" toLane="0" via=":J0_10_0" tl="J0" linkIndex="10" dir="s" state="o"/>
    <connection from="E3" to="E0" fromLane="0" toLane="0" via=":J0_11_0" tl="J0" linkIndex="11" dir="l" state="o"/>
    <connection from="E5" to="E4" fromLane="0" toLane="0" via=":J0_6_0" tl="J0" linkIndex="6" dir="r" state="O"/>
    <connection from="E5" to="E0" fromLane="0" toLane="0" via=":J0_7_0" tl="J0" linkIndex="7" dir="s" state="O"/>
    <connection from="E5" to="-E3" fromLane="0" toLane="0" via=":J0_8_0" tl="J0" linkIndex="8" dir="l" state="o"/>
    <connection from="E6" to="E3" fromLane="0" toLane="0" via=":J3_6_0" tl="J3" linkIndex="6" dir="r" state="O"/>
    <connection from="E6" to="-E2" fromLane="0" toLane="0" via=":J3_7_0" tl="J3" linkIndex="7" dir="s" state="O"/>
    <connection from="E6" to="E7" fromLane="0" toLane="0" via=":J3_8_0" tl="J3" linkIndex="8" dir="l" state="o"/>

    <connection from=":J0_0" to="-E3" fromLane="0" toLane="0" dir="r" state="M"/>
    <connection from=":J0_1" to="-E5" fromLane="0" toLane="0" dir="s" state="M"/>
    <connection from=":J0_2" to="E4" fromLane="0" toLane="0" dir="l" state="M"/>
    <connection from=":J0_3" to="E0" fromLane="0" toLane="0" dir="r" state="M"/>
    <connection from=":J0_4" to="-E3" fromLane="0" toLane="0" dir="s" state="M"/>
    <connection from=":J0_5" to="-E5" fromLane="0" toLane="0" dir="l" state="M"/>
    <connection from=":J0_6" to="E4" fromLane="0" toLane="0" dir="r" state="M"/>
    <connection from=":J0_7" to="E0" fromLane="0" toLane="0" dir="s" state="M"/>
    <connection from=":J0_8" to="-E3" fromLane="0" toLane="0" dir="l" state="M"/>
    <connection from=":J0_9" to="-E5" fromLane="0" toLane="0" dir="r" state="M"/>
    <connection from=":J0_10" to="E4" fromLane="0" toLane="0" dir="s" state="M"/>
    <connection from=":J0_11" to="E0" fromLane="0" toLane="0" dir="l" state="M"/>
    <connection from=":J1_0" to="E1" fromLane="0" toLane="0" dir="r" state="M"/>
    <connection from=":J1_1" to="-E0" fromLane="0" toLane="0" dir="s" state="M"/>
    <connection from=":J1_2" to="E11" fromLane="0" toLane="0" dir="l" state="M"/>
    <connection from=":J1_3" to="E10" fromLane="0" toLane="0" dir="r" state="M"/>
    <connection from=":J1_4" to="E1" fromLane="0" toLane="0" dir="s" state="M"/>
    <connection from=":J1_5" to="-E0" fromLane="0" toLane="0" dir="l" state="M"/>