<?xml version="1.0" encoding="UTF-8"?>

<!-- generated on 2022-09-12 22:32:49.707068 by randomTrips.py v1_14_1+0000-f654d7b963e
<configuration>
    <end value="100000"/>
    <net-file value="net.net.xml"/>
    <period value="5.0"/>
    <route-file value="osm.rou.xml"/>
    <output-trip-file value="trips.xml"/>
</configuration>
-->

<!-- generated on 2022-09-12 22:32:49 by Eclipse SUMO duarouter Version 1.14.1
<configuration xmlns:xsi="http://www.w3.org/2001/XMLSchema-instance" xsi:noNamespaceSchemaLocation="http://sumo.dlr.de/xsd/duarouterConfiguration.xsd">

    <input>
        <net-file value="net.net.xml"/>
        <route-files value="trips.xml"/>
    </input>

    <output>
        <output-file value="osm.rou.xml"/>
        <alternatives-output value="NUL"/>
    </output>

    <time>
        <begin value="0"/>
        <end value="100000"/>
    </time>

    <report>
        <no-warnings value="true"/>
        <ignore-errors value="true"/>
        <no-step-log value="true"/>
    </report>

</configuration>
-->

<routes xmlns:xsi="http://www.w3.org/2001/XMLSchema-instance" xsi:noNamespaceSchemaLocation="http://sumo.dlr.de/xsd/routes_file.xsd">
    <vehicle id="1" depart="5.00">
        <route edges="-E2 -E1 -E0 -E3"/>
    </vehicle>
    <vehicle id="2" depart="10.00">
        <route edges="E1 E2"/>
    </vehicle>
    <vehicle id="3" depart="15.00">
        <route edges="E5 -E3 -E2 -E1"/>
    </vehicle>
    <vehicle id="4" depart="20.00">
        <route edges="-E4 -E3 -E2 -E1 -E0"/>
    </vehicle>
    <vehicle id="5" depart="25.00">
        <route edges="-E11 E10"/>
    </vehicle>
    <vehicle id="6" depart="30.00">
        <route edges="-E0 -E3"/>
    </vehicle>
    <vehicle id="7" depart="35.00">
        <route edges="E0 E10"/>
    </vehicle>
    <vehicle id="8" depart="40.00">
        <route edges="-E11 -E0 -E3 -E2 -E1 E11"/>
    </vehicle>
    <vehicle id="10" depart="50.00">
        <route edges="E2 E3"/>
    </vehicle>
    <vehicle id="11" depart="55.00">
        <route edges="-E3 -E2"/>
    </vehicle>
    <vehicle id="12" depart="60.00">
        <route edges="E6 -E2 -E1 -E0 -E3 -E6"/>
    </vehicle>
    <vehicle id="13" depart="65.00">
        <route edges="-E1"/>
    </vehicle>
    <vehicle id="14" depart="70.00">
        <route edges="E3 E0 E11"/>
    </vehicle>
    <vehicle id="15" depart="75.00">
        <route edges="E2 E3"/>
    </vehicle>
    <vehicle id="16" depart="80.00">
        <route edges="-E8 E9"/>
    </vehicle>
    <vehicle id="17" depart="85.00">
        <route edges="-E4 E0 E10"/>
    </vehicle>
    <vehicle id="18" depart="90.00">
        <route edges="E3 E0 E11"/>
    </vehicle>
    <vehicle id="19" depart="95.00">
        <route edges="E3 E0 E11"/>
    </vehicle>
    <vehicle id="21" depart="105.00">
        <route edges="-E11 -E0 -E5"/>
    </vehicle>
    <vehicle id="22" depart="110.00">
        <route edges="-E1 -E0 -E3"/>
    </vehicle>
    <vehicle id="23" depart="115.00">
        <route edges="-E1 -E0 -E5"/>
    </vehicle>
    <vehicle id="24" depart="120.00">
        <route edges="E0 E1 E2 -E6"/>
    </vehicle>
    <vehicle id="25" depart="125.00">
        <route edges="-E3"/>
    </vehicle>
    <vehicle id="26" depart="130.00">
        <route edges="-E2 E8"/>
    </vehicle>
    <vehicle id="27" depart="135.00">
        <route edges="E0 E11"/>
    </vehicle>
    <vehicle id="28" depart="140.00">
        <route edges="-E10 E1 E2 E3"/>
    </vehicle>
    <vehicle id="29" depart="145.00">
        <route edges="-E10 E1 E2 E3 E0"/>
    </vehicle>
    <vehicle id="30" depart="150.00">
        <route edges="E6 E3 E0 E1 E2"/>
    </vehicle>
    <vehicle id="31" depart="155.00">
        <route edges="-E8 E2"/>
    </vehicle>
    <vehicle id="32" depart="160.00">
        <route edges="E3 E4"/>
    </vehicle>
    <vehicle id="33" depart="165.00">
        <route edges="-E11 -E0"/>
    </vehicle>
    <vehicle id="34" depart="170.00">
        <route edges="-E3 -E2 -E1 -E0 -E5"/>
    </vehicle>
    <vehicle id="35" depart="175.00">
        <route edges="-E11 E1 E9"/>
    </vehicle>
    <vehicle id="36" depart="180.00">
        <route edges="E5 -E3 -E6"/>
    </vehicle>
    <vehicle id="37" depart="185.00">
        <route edges="E0"/>
    </vehicle>
    <vehicle id="38" depart="190.00">
        <route edges="E5 E0 E1"/>
    </vehicle>
    <vehicle id="39" depart="195.00">
        <route edges="-E2 -E1 -E0 -E3"/>
    </vehicle>
    <vehicle id="40" depart="200.00">
        <route edges="-E8 -E1 -E0 -E5"/>
    </vehicle>
    <vehicle id="41" depart="205.00">
        <route edges="-E9 E8"/>
    </vehicle>
    <vehicle id="42" depart="210.00">
        <route edges="-E4 -E3"/>
    </vehicle>
    <vehicle id="43" depart="215.00">
        <route edges="E6 -E2 -E1 E10"/>
    </vehicle>
    <vehicle id="44" depart="220.00">
        <route edges="-E1 -E0"/>
    </vehicle>
    <vehicle id="46" depart="230.00">
        <route edges="E2 E3 E0"/>
    </vehicle>
    <vehicle id="48" depart="240.00">
        <route edges="E6 -E2 -E1 E10"/>
    </vehicle>
    <vehicle id="49" depart="245.00">
        <route edges="E6 E7"/>
    </vehicle>
    <vehicle id="51" depart="255.00">
        <route edges="E0 E10"/>
    </vehicle>
    <vehicle id="54" depart="270.00">
        <route edges="-E7 -E2 E9"/>
    </vehicle>
    <vehicle id="55" depart="275.00">
        <route edges="E5 -E3 -E2 -E1 -E0 -E5"/>
    </vehicle>
    <vehicle id="56" depart="280.00">
        <route edges="-E8 -E1 -E0 -E3 -E2"/>
    </vehicle>
    <vehicle id="57" depart="285.00">
        <route edges="E5 -E3 E7"/>
    </vehicle>
    <vehicle id="59" depart="295.00">
        <route edges="-E9 -E1 -E0 -E3 -E2"/>
    </vehicle>
    <vehicle id="60" depart="300.00">
        <route edges="E2 E3 E0 E10"/>
    </vehicle>
    <vehicle id="61" depart="305.00">
        <route edges="E2 E3 E0 E10"/>
    </vehicle>
    <vehicle id="62" depart="310.00">
        <route edges="-E0 -E3 -E6"/>
    </vehicle>
    <vehicle id="63" depart="315.00">
        <route edges="-E0 -E3 -E2 E8"/>
    </vehicle>
    <vehicle id="64" depart="320.00">
        <route edges="E5 -E3 E7"/>
    </vehicle>
    <vehicle id="65" depart="325.00">
        <route edges="-E2 -E1 -E0"/>
    </vehicle>
    <vehicle id="66" depart="330.00">
        <route edges="E5 E0 E1 E9"/>
    </vehicle>
    <vehicle id="68" depart="340.00">
        <route edges="-E1 -E0 E4"/>
    </vehicle>
    <vehicle id="70" depart="350.00">
        <route edges="-E7 E3 E0 E10"/>
    </vehicle>
    <vehicle id="71" depart="355.00">
        <route edges="-E2 -E1 -E0 -E3 E7"/>
    </vehicle>
    <vehicle id="72" depart="360.00">
        <route edges="-E4 -E3"/>
    </vehicle>
    <vehicle id="73" depart="365.00">
        <route edges="-E8 E2 E3"/>
    </vehicle>
    <vehicle id="74" depart="370.00">
        <route edges="-E11 -E0 -E5"/>
    </vehicle>
    <vehicle id="75" depart="375.00">
        <route edges="E6 E3 E0 E1 E2"/>
    </vehicle>
    <vehicle id="76" depart="380.00">
        <route edges="-E7 E3 E0 E10"/>
    </vehicle>
    <vehicle id="77" depart="385.00">
        <route edges="-E1 -E0 -E3"/>
    </vehicle>
    <vehicle id="78" depart="390.00">
        <route edges="-E3 -E2 -E1 E11"/>
    </vehicle>
    <vehicle id="79" depart="395.00">
        <route edges="-E11 -E0 -E3"/>
    </vehicle>
    <vehicle id="81" depart="405.00">
        <route edges="-E11 E1 E8"/>
    </vehicle>
    <vehicle id="83" depart="415.00">
        <route edges="-E11 E1 E2"/>
    </vehicle>
    <vehicle id="84" depart="420.00">
        <route edges="-E11 -E0 -E3 -E2"/>
    </vehicle>
    <vehicle id="85" depart="425.00">
        <route edges="E5 E0 E11"/>
    </vehicle>
    <vehicle id="86" depart="430.00">
        <route edges="-E7 E3 E4"/>
    </vehicle>
    <vehicle id="89" depart="445.00">
        <route edges="-E4 E0 E1"/>
    </vehicle>
    <vehicle id="90" depart="450.00">
        <route edges="E1 E2"/>
    </vehicle>
    <vehicle id="91" depart="455.00">
        <route edges="E6 -E2 -E1"/>
    </vehicle>
    <vehicle id="92" depart="460.00">
        <route edges="-E4 -E3 -E6"/>
    </vehicle>
    <vehicle id="94" depart="470.00">
        <route edges="-E11 E1"/>
    </vehicle>
    <vehicle id="95" depart="475.00">
        <route edges="-E4 -E5"/>
    </vehicle>
    <vehicle id="96" depart="480.00">
        <route edges="-E11 E1 E8"/>
    </vehicle>
    <vehicle id="97" depart="485.00">
        <route edges="-E7 -E2 -E1 -E0 -E3 E7"/>
    </vehicle>
    <vehicle id="98" depart="490.00">
        <route edges="-E8 -E1 -E0"/>
    </vehicle>
    <vehicle id="99" depart="495.00">
        <route edges="E6 E7"/>
    </vehicle>
    <vehicle id="100" depart="500.00">
        <route edges="E6 -E2 E8"/>
    </vehicle>
    <vehicle id="102" depart="510.00">
        <route edges="-E7 -E2 -E1 -E0 -E3"/>
    </vehicle>
    <vehicle id="103" depart="515.00">
        <route edges="-E4 -E3 -E2 -E1 -E0"/>
    </vehicle>
    <vehicle id="104" depart="520.00">
        <route edges="-E4 -E3 -E2 E9"/>
    </vehicle>
    <vehicle id="105" depart="525.00">
        <route edges="-E2 -E1 -E0 E4"/>
    </vehicle>
    <vehicle id="106" depart="530.00">
        <route edges="-E7 E3 E0"/>
    </vehicle>
    <vehicle id="107" depart="535.00">
        <route edges="E6 -E2 E9"/>
    </vehicle>
    <vehicle id="108" depart="540.00">
        <route edges="-E8 E2 E3"/>
    </vehicle>
    <vehicle id="109" depart="545.00">
        <route edges="-E10 -E0 -E5"/>
    </vehicle>
    <vehicle id="110" depart="550.00">
        <route edges="E6 -E2 -E1 E11"/>
    </vehicle>
    <vehicle id="111" depart="555.00">
        <route edges="-E8 E2 E3"/>
    </vehicle>
    <vehicle id="112" depart="560.00">
        <route edges="-E0 -E3 -E2 -E1 E11"/>
    </vehicle>
    <vehicle id="113" depart="565.00">
        <route edges="-E8 E2 E7"/>
    </vehicle>
    <vehicle id="114" depart="570.00">
        <route edges="-E10 E1 E9"/>
    </vehicle>
    <vehicle id="115" depart="575.00">
        <route edges="-E1 -E0 -E3 -E2"/>
    </vehicle>
    <vehicle id="116" depart="580.00">
        <route edges="-E9 E2"/>
    </vehicle>
    <vehicle id="117" depart="585.00">
        <route edges="-E11 -E0 -E3 -E2 -E1"/>
    </vehicle>
    <vehicle id="118" depart="590.00">
        <route edges="E5 -E3"/>
    </vehicle>
    <vehicle id="119" depart="595.00">
        <route edges="-E9 -E1 E11"/>
    </vehicle>
    <vehicle id="120" depart="600.00">
        <route edges="-E4 E0 E11"/>
    </vehicle>
    <vehicle id="121" depart="605.00">
        <route edges="-E8 -E1 -E0 -E3 -E2 E8"/>
    </vehicle>
    <vehicle id="122" depart="610.00">
        <route edges="-E11 E1 E2 E3"/>
    </vehicle>
    <vehicle id="123" depart="615.00">
        <route edges="-E11 E1 E2 E3 E0"/>
    </vehicle>
    <vehicle id="124" depart="620.00">
        <route edges="E0 E1 E2 E3 -E5"/>
    </vehicle>
    <vehicle id="125" depart="625.00">
        <route edges="-E3 -E2 -E1 -E0 E4"/>
    </vehicle>
    <vehicle id="127" depart="635.00">
        <route edges="E6 -E2 E9"/>
    </vehicle>
    <vehicle id="128" depart="640.00">
        <route edges="-E1 -E0 -E3"/>
    </vehicle>
    <vehicle id="129" depart="645.00">
        <route edges="-E2 E8"/>
    </vehicle>
    <vehicle id="130" depart="650.00">
        <route edges="E5 E0 E1 E8"/>
    </vehicle>
    <vehicle id="131" depart="655.00">
        <route edges="-E3 -E2"/>
    </vehicle>
    <vehicle id="132" depart="660.00">
        <route edges="E3"/>
    </vehicle>
    <vehicle id="133" depart="665.00">
        <route edges="-E9 -E1 -E0 -E3 -E2 E9"/>
    </vehicle>
    <vehicle id="135" depart="675.00">
        <route edges="E3 -E5"/>
    </vehicle>
    <vehicle id="136" depart="680.00">
        <route edges="E0 E1 E9"/>
    </vehicle>
    <vehicle id="137" depart="685.00">
        <route edges="-E10 -E0 -E3 -E2 -E1"/>
    </vehicle>
    <vehicle id="138" depart="690.00">
        <route edges="-E1 E10"/>
    </vehicle>
    <vehicle id="139" depart="695.00">
        <route edges="-E2 -E1 E11"/>
    </vehicle>
    <vehicle id="141" depart="705.00">
        <route edges="E0 E1 E2 E3 -E5"/>
    </vehicle>
    <vehicle id="142" depart="710.00">
        <route edges="-E7 -E2 E8"/>
    </vehicle>
    <vehicle id="144" depart="720.00">
        <route edges="-E4 -E5"/>
    </vehicle>
    <vehicle id="145" depart="725.00">
        <route edges="-E0 E4"/>
    </vehicle>
    <vehicle id="146" depart="730.00">
        <route edges="E0 E1 E2 E3 -E5"/>
    </vehicle>
    <vehicle id="147" depart="735.00">
        <route edges="E1 E2 E3 E0 E10"/>
    </vehicle>
    <vehicle id="148" depart="740.00">
        <route edges="-E4 -E3 -E2 -E1 -E0"/>
    </vehicle>
    <vehicle id="149" depart="745.00">
        <route edges="-E1 -E0 -E3 -E2 E8"/>
    </vehicle>
    <vehicle id="150" depart="750.00">
        <route edges="E5 E0 E10"/>
    </vehicle>
    <vehicle id="151" depart="755.00">
        <route edges="E3 E0 E11"/>
    </vehicle>
    <vehicle id="152" depart="760.00">
        <route edges="-E10 -E0 -E3 -E2"/>
    </vehicle>
    <vehicle id="153" depart="765.00">
        <route edges="-E2 E8"/>
    </vehicle>
    <vehicle id="154" depart="770.00">
        <route edges="E2 E7"/>
    </vehicle>
    <vehicle id="155" depart="775.00">
        <route edges="E5 -E3"/>
    </vehicle>
    <vehicle id="156" depart="780.00">
        <route edges="-E11 -E0 -E3 -E2 -E1"/>
    </vehicle>
    <vehicle id="157" depart="785.00">
        <route edges="E2 E3 E0 E1 E8"/>
    </vehicle>
    <vehicle id="158" depart="790.00">
        <route edges="-E4 E0 E11"/>
    </vehicle>
    <vehicle id="159" depart="795.00">
        <route edges="-E10 E1 E8"/>
    </vehicle>
    <vehicle id="160" depart="800.00">
        <route edges="E3 E0 E1 E9"/>
    </vehicle>
    <vehicle id="161" depart="805.00">
        <route edges="E2 E3 E0 E1 E8"/>
    </vehicle>
    <vehicle id="163" depart="815.00">
        <route edges="-E3 -E2 E8"/>
    </vehicle>
    <vehicle id="164" depart="820.00">
        <route edges="E2 E7"/>
    </vehicle>
    <vehicle id="165" depart="825.00">
        <route edges="E2 E3 -E5"/>
    </vehicle>
    <vehicle id="167" depart="835.00">
        <route edges="E3 E0 E1 E2 E7"/>
    </vehicle>
    <vehicle id="168" depart="840.00">
        <route edges="-E11 E1 E2 E7"/>
    </vehicle>
    <vehicle id="169" depart="845.00">
        <route edges="-E7 E3 -E5"/>
    </vehicle>
    <vehicle id="171" depart="855.00">
        <route edges="-E0 -E3"/>
    </vehicle>
    <vehicle id="172" depart="860.00">
        <route edges="-E3 E7"/>
    </vehicle>
    <vehicle id="173" depart="865.00">
        <route edges="E6 E3 -E5"/>
    </vehicle>
    <vehicle id="174" depart="870.00">
        <route edges="E0"/>
    </vehicle>
    <vehicle id="175" depart="875.00">
        <route edges="E6 -E2 -E1 E10"/>
    </vehicle>
    <vehicle id="176" depart="880.00">
        <route edges="E6 -E2 -E1"/>
    </vehicle>
    <vehicle id="177" depart="885.00">
        <route edges="E6 -E2"/>
    </vehicle>
    <vehicle id="178" depart="890.00">
        <route edges="E6 E3 -E5"/>
    </vehicle>
    <vehicle id="180" depart="900.00">
        <route edges="E1 E2 -E6"/>
    </vehicle>
    <vehicle id="181" depart="905.00">
        <route edges="-E9 -E1 E10"/>
    </vehicle>
    <vehicle id="182" depart="910.00">
        <route edges="-E4 E0 E11"/>
    </vehicle>
    <vehicle id="184" depart="920.00">
        <route edges="-E0 -E3 -E2 E8"/>
    </vehicle>
    <vehicle id="185" depart="925.00">
        <route edges="-E8 E2 E3"/>
    </vehicle>
    <vehicle id="186" depart="930.00">
        <route edges="E1 E2"/>
    </vehicle>
    <vehicle id="187" depart="935.00">
        <route edges="-E3 -E2 -E1"/>
    </vehicle>
    <vehicle id="188" depart="940.00">
        <route edges="E0 E1 E2 -E6"/>
    </vehicle>
    <vehicle id="189" depart="945.00">
        <route edges="-E3 E7"/>
    </vehicle>
    <vehicle id="190" depart="950.00">
        <route edges="E1 E2 E3 -E5"/>
    </vehicle>
    <vehicle id="192" depart="960.00">
        <route edges="-E4 -E5"/>
    </vehicle>
    <vehicle id="193" depart="965.00">
        <route edges="-E10 E1 E2 E3 E0"/>
    </vehicle>
    <vehicle id="194" depart="970.00">
        <route edges="E6 E3 E0 E1 E2"/>
    </vehicle>
    <vehicle id="195" depart="975.00">
        <route edges="E5 E0 E11"/>
    </vehicle>
    <vehicle id="196" depart="980.00">
        <route edges="-E2 -E1 E10"/>
    </vehicle>
    <vehicle id="197" depart="985.00">
        <route edges="-E0 -E5"/>
    </vehicle>
    <vehicle id="198" depart="990.00">
        <route edges="-E4 E0 E11"/>
    </vehicle>
    <vehicle id="199" depart="995.00">
        <route edges="E0 E1"/>
    </vehicle>
    <vehicle id="200" depart="1000.00">
        <route edges="-E7 -E2 -E1 -E0 -E3"/>
    </vehicle>
    <vehicle id="201" depart="1005.00">
        <route edges="-E7 -E2 E8"/>
    </vehicle>
    <vehicle id="203" depart="1015.00">
        <route edges="-E1 E10"/>
    </vehicle>
    <vehicle id="204" depart="1020.00">
        <route edges="E0 E1 E2 -E6"/>
    </vehicle>
    <vehicle id="205" depart="1025.00">
        <route edges="E3 E4"/>
    </vehicle>
    <vehicle id="207" depart="1035.00">
        <route edges="-E11 -E0"/>
    </vehicle>
    <vehicle id="208" depart="1040.00">
        <route edges="-E11 E1"/>
    </vehicle>
    <vehicle id="210" depart="1050.00">
        <route edges="-E4 E0 E1 E2"/>
    </vehicle>
    <vehicle id="211" depart="1055.00">
        <route edges="-E11 E1 E2 E3"/>
    </vehicle>
    <vehicle id="212" depart="1060.00">
        <route edges="-E7 -E2 -E1 -E0 -E3"/>
    </vehicle>
    <vehicle id="214" depart="1070.00">
        <route edges="E2 E3 E4"/>
    </vehicle>
    <vehicle id="216" depart="1080.00">
        <route edges="-E10 E1 E9"/>
    </vehicle>
    <vehicle id="217" depart="1085.00">
        <route edges="-E8 -E1 -E0"/>
    </vehicle>
    <vehicle id="218" depart="1090.00">
        <route edges="-E11 E1 E2 E7"/>
    </vehicle>
    <vehicle id="219" depart="1095.00">
        <route edges="-E7 E3 E4"/>
    </vehicle>
    <vehicle id="220" depart="1100.00">
        <route edges="E0 E1 E9"/>
    </vehicle>
    <vehicle id="221" depart="1105.00">
        <route edges="-E9 -E1 -E0 -E3 -E2 E9"/>
    </vehicle>
    <vehicle id="222" depart="1110.00">
        <route edges="E5 E0 E11"/>
    </vehicle>
    <vehicle id="223" depart="1115.00">
        <route edges="E1 E2 E3 E0 E10"/>
    </vehicle>
    <vehicle id="224" depart="1120.00">
        <route edges="E3 E0 E10"/>
    </vehicle>
    <vehicle id="225" depart="1125.00">
        <route edges="E5 E0 E1 E2 E3"/>
    </vehicle>
    <vehicle id="226" depart="1130.00">
        <route edges="-E7 E3 -E5"/>
    </vehicle>
    <vehicle id="227" depart="1135.00">
        <route edges="-E11 E1 E2"/>
    </vehicle>
    <vehicle id="228" depart="1140.00">
        <route edges="E2 E3 E0 E10"/>
    </vehicle>
    <vehicle id="229" depart="1145.00">
        <route edges="E0 E1 E2 E3 -E5"/>
    </vehicle>
    <vehicle id="230" depart="1150.00">
        <route edges="-E1 -E0 -E5"/>
    </vehicle>
    <vehicle id="231" depart="1155.00">
        <route edges="-E2 -E1 -E0 -E3 -E6"/>
    </vehicle>
    <vehicle id="232" depart="1160.00">
        <route edges="-E8 -E1 -E0 -E3 -E2"/>
    </vehicle>
    <vehicle id="233" depart="1165.00">
        <route edges="-E11 E1 E2 E3"/>
    </vehicle>
    <vehicle id="235" depart="1175.00">
        <route edges="-E4 E0 E10"/>
    </vehicle>
    <vehicle id="236" depart="1180.00">
        <route edges="-E4 -E3"/>
    </vehicle>
    <vehicle id="237" depart="1185.00">
        <route edges="-E4 -E3 -E2 E8"/>
    </vehicle>
    <vehicle id="238" depart="1190.00">
        <route edges="-E9 E2 E3"/>
    </vehicle>
    <vehicle id="239" depart="1195.00">
        <route edges="E3 E4"/>
    </vehicle>
    <vehicle id="240" depart="1200.00">
        <route edges="-E4 -E3 -E2 -E1 -E0"/>
    </vehicle>
    <vehicle id="241" depart="1205.00">
        <route edges="-E3 -E2 -E1 -E0 E4"/>
    </vehicle>
    <vehicle id="242" depart="1210.00">
        <route edges="E3 E0 E1 E9"/>
    </vehicle>
    <vehicle id="243" depart="1215.00">
        <route edges="-E4 E0 E1 E2 E3"/>
    </vehicle>
    <vehicle id="244" depart="1220.00">
        <route edges="-E8 -E1 E11"/>
    </vehicle>
    <vehicle id="245" depart="1225.00">
        <route edges="-E11 -E0 -E3"/>
    </vehicle>
    <vehicle id="246" depart="1230.00">
        <route edges="-E4 -E3 -E2 -E1 -E0"/>
    </vehicle>
    <vehicle id="248" depart="1240.00">
        <route edges="-E4 -E3 -E2"/>
    </vehicle>
    <vehicle id="249" depart="1245.00">
        <route edges="-E7 -E2"/>
    </vehicle>
    <vehicle id="250" depart="1250.00">
        <route edges="-E9 -E1 -E0"/>
    </vehicle>
    <vehicle id="251" depart="1255.00">
        <route edges="-E4 E0 E11"/>
    </vehicle>
    <vehicle id="253" depart="1265.00">
        <route edges="-E10 E1"/>
    </vehicle>
    <vehicle id="255" depart="1275.00">
        <route edges="-E11 E1 E2 -E6"/>
    </vehicle>
    <vehicle id="256" depart="1280.00">
        <route edges="E2 E3 E0"/>
    </vehicle>
    <vehicle id="257" depart="1285.00">
        <route edges="E2 E7"/>
    </vehicle>
    <vehicle id="258" depart="1290.00">
        <route edges="-E2 -E1"/>
    </vehicle>
    <vehicle id="259" depart="1295.00">
        <route edges="-E0 -E3 -E2 -E1 E10"/>
    </vehicle>
    <vehicle id="260" depart="1300.00">
        <route edges="E6 -E2 -E1 -E0 -E3 -E6"/>
    </vehicle>
    <vehicle id="261" depart="1305.00">
        <route edges="E0 E1 E2 E3 E4"/>
    </vehicle>
    <vehicle id="262" depart="1310.00">
        <route edges="E0 E1 E2 E3 E4"/>
    </vehicle>
    <vehicle id="263" depart="1315.00">
        <route edges="E6 -E2 -E1 -E0 -E3"/>
    </vehicle>
    <vehicle id="264" depart="1320.00">
        <route edges="-E0 -E3 -E2"/>
    </vehicle>
    <vehicle id="265" depart="1325.00">
        <route edges="-E10 E1 E2"/>
    </vehicle>
    <vehicle id="266" depart="1330.00">
        <route edges="-E9 -E1 -E0 -E3"/>
    </vehicle>
    <vehicle id="267" depart="1335.00">
        <route edges="E1 E2 E3 E4"/>
    </vehicle>
    <vehicle id="268" depart="1340.00">
        <route edges="-E10 E11"/>
    </vehicle>
    <vehicle id="270" depart="1350.00">
        <route edges="E3 E0 E1 E9"/>
    </vehicle>
    <vehicle id="271" depart="1355.00">
        <route edges="-E1 -E0"/>
    </vehicle>
    <vehicle id="273" depart="1365.00">
        <route edges="E6 E3 E0"/>
    </vehicle>
    <vehicle id="275" depart="1375.00">
        <route edges="E1 E2"/>
    </vehicle>
    <vehicle id="276" depart="1380.00">
        <route edges="-E1 -E0 E4"/>
    </vehicle>
    <vehicle id="277" depart="1385.00">
        <route edges="E3 E0 E11"/>
    </vehicle>
    <vehicle id="278" depart="1390.00">
        <route edges="-E1 -E0 -E3 -E2 E9"/>
    </vehicle>
    <vehicle id="279" depart="1395.00">
        <route edges="E2 -E6"/>
    </vehicle>
    <vehicle id="280" depart="1400.00">
        <route edges="-E4 -E3 -E6"/>
    </vehicle>
    <vehicle id="281" depart="1405.00">
        <route edges="-E8 E2 -E6"/>
    </vehicle>
    <vehicle id="282" depart="1410.00">
        <route edges="E3 E0 E1 E2 E7"/>
    </vehicle>
    <vehicle id="283" depart="1415.00">
        <route edges="-E1 -E0 -E3 -E2 E9"/>
    </vehicle>
    <vehicle id="284" depart="1420.00">
        <route edges="E0 E1 E2 E7"/>
    </vehicle>
    <vehicle id="285" depart="1425.00">
        <route edges="E1 E2 E3 E0"/>
    </vehicle>
    <vehicle id="286" depart="1430.00">
        <route edges="E1 E9"/>
    </vehicle>
    <vehicle id="287" depart="1435.00">
        <route edges="-E2 -E1 -E0 E4"/>
    </vehicle>
    <vehicle id="288" depart="1440.00">
        <route edges="-E8 E2 E3 E0 E1"/>
    </vehicle>
    <vehicle id="289" depart="1445.00">
        <route edges="-E4 E0 E1 E2 E3"/>
    </vehicle>
    <vehicle id="290" depart="1450.00">
        <route edges="-E2 -E1 -E0 -E3 E7"/>
    </vehicle>
    <vehicle id="292" depart="1460.00">
        <route edges="E5 -E3"/>
    </vehicle>
    <vehicle id="293" depart="1465.00">
        <route edges="-E7 E3 E0 E11"/>
    </vehicle>
    <vehicle id="294" depart="1470.00">
        <route edges="-E4 -E3 -E2 -E1 -E0"/>
    </vehicle>
    <vehicle id="296" depart="1480.00">
        <route edges="-E11 -E0 E4"/>
    </vehicle>
    <vehicle id="297" depart="1485.00">
        <route edges="-E3 -E2 E8"/>
    </vehicle>
    <vehicle id="298" depart="1490.00">
        <route edges="E1 E2 E3 -E5"/>
    </vehicle>
    <vehicle id="299" depart="1495.00">
        <route edges="-E0 -E3 -E2 E9"/>
    </vehicle>
    <vehicle id="301" depart="1505.00">
        <route edges="-E7 E3 E4"/>
    </vehicle>
    <vehicle id="302" depart="1510.00">
        <route edges="E1 E2"/>
    </vehicle>
    <vehicle id="303" depart="1515.00">
        <route edges="-E7 E3 E4"/>
    </vehicle>
    <vehicle id="304" depart="1520.00">
        <route edges="-E1 -E0 -E3"/>
    </vehicle>
    <vehicle id="305" depart="1525.00">
        <route edges="E1 E2 E3 -E5"/>
    </vehicle>
    <vehicle id="306" depart="1530.00">
        <route edges="-E9 E2 E3 E0 E1"/>
    </vehicle>
    <vehicle id="307" depart="1535.00">
        <route edges="-E8 E2 E3 E0"/>
    </vehicle>
    <vehicle id="308" depart="1540.00">
        <route edges="E1 E2 -E6"/>
    </vehicle>
    <vehicle id="309" depart="1545.00">
        <route edges="E1 E2 E3 -E5"/>
    </vehicle>
    <vehicle id="310" depart="1550.00">
        <route edges="-E2 -E1"/>
    </vehicle>
    <vehicle id="311" depart="1555.00">
        <route edges="-E11 -E0 -E3 -E2 -E1"/>
    </vehicle>
    <vehicle id="312" depart="1560.00">
        <route edges="-E8 -E1 -E0 E4"/>
    </vehicle>
    <vehicle id="313" depart="1565.00">
        <route edges="-E10 -E0 -E3"/>
    </vehicle>
    <vehicle id="314" depart="1570.00">
        <route edges="-E7 E3"/>
    </vehicle>
    <vehicle id="315" depart="1575.00">
        <route edges="E6 -E2 -E1 E10"/>
    </vehicle>
    <vehicle id="316" depart="1580.00">
        <route edges="-E2 -E1"/>
    </vehicle>
    <vehicle id="317" depart="1585.00">
        <route edges="-E11 -E0 -E3"/>
    </vehicle>
    <vehicle id="318" depart="1590.00">
        <route edges="-E10 -E0"/>
    </vehicle>
    <vehicle id="319" depart="1595.00">
        <route edges="-E8 -E1 -E0 -E5"/>
    </vehicle>
    <vehicle id="320" depart="1600.00">
        <route edges="E6 -E2 -E1 E10"/>
    </vehicle>
    <vehicle id="322" depart="1610.00">
        <route edges="E3 E0 E1"/>
    </vehicle>
    <vehicle id="323" depart="1615.00">
        <route edges="E3 E0 E11"/>
    </vehicle>
    <vehicle id="324" depart="1620.00">
        <route edges="-E7 E3 E0 E1"/>
    </vehicle>
    <vehicle id="325" depart="1625.00">
        <route edges="-E10 -E0"/>
    </vehicle>
    <vehicle id="326" depart="1630.00">
        <route edges="E6 E3 E0 E1"/>
    </vehicle>
    <vehicle id="327" depart="1635.00">
        <route edges="E3 E0"/>
    </vehicle>
    <vehicle id="329" depart="1645.00">
        <route edges="-E0 -E3 -E2"/>
    </vehicle>
    <vehicle id="330" depart="1650.00">
        <route edges="-E9 E2 E3 -E5"/>
    </vehicle>
    <vehicle id="331" depart="1655.00">
        <route edges="E6 -E2 -E1"/>
    </vehicle>
    <vehicle id="332" depart="1660.00">
        <route edges="E2 E3 E0 E11"/>
    </vehicle>
    <vehicle id="334" depart="1670.00">
        <route edges="-E8 E2 E3 E0 E1"/>
    </vehicle>
    <vehicle id="335" depart="1675.00">
        <route edges="-E7 -E2 -E1 -E0 -E3 E7"/>
    </vehicle>
    <vehicle id="336" depart="1680.00">
        <route edges="E6 E3 -E5"/>
    </vehicle>
    <vehicle id="337" depart="1685.00">
        <route edges="-E9 -E1 E11"/>
    </vehicle>
    <vehicle id="338" depart="1690.00">
        <route edges="E1 E9"/>
    </vehicle>
    <vehicle id="339" depart="1695.00">
        <route edges="-E11 -E0 -E3"/>
    </vehicle>
    <vehicle id="341" depart="1705.00">
        <route edges="-E10 -E0 -E3 -E2 -E1"/>
    </vehicle>
    <vehicle id="343" depart="1715.00">
        <route edges="-E9 E2 E3 -E5"/>
    </vehicle>
    <vehicle id="344" depart="1720.00">
        <route edges="-E11 E1 E2 E3"/>
    </vehicle>
    <vehicle id="345" depart="1725.00">
        <route edges="E1"/>
    </vehicle>
    <vehicle id="346" depart="1730.00">
        <route edges="E0 E1 E8"/>
    </vehicle>
    <vehicle id="347" depart="1735.00">
        <route edges="E2"/>
    </vehicle>
    <vehicle id="348" depart="1740.00">
        <route edges="E0 E1 E8"/>
    </vehicle>
    <vehicle id="349" depart="1745.00">
        <route edges="-E4 E0 E10"/>
    </vehicle>
    <vehicle id="350" depart="1750.00">
        <route edges="E0 E1 E8"/>
    </vehicle>
    <vehicle id="352" depart="1760.00">
        <route edges="-E10 -E0 -E5"/>
    </vehicle>
    <vehicle id="353" depart="1765.00">
        <route edges="E1 E2 E3 E0 E11"/>
    </vehicle>
    <vehicle id="354" depart="1770.00">
        <route edges="-E2 -E1"/>
    </vehicle>
    <vehicle id="355" depart="1775.00">
        <route edges="E1 E2 E3"/>
    </vehicle>
    <vehicle id="356" depart="1780.00">
        <route edges="E6 -E2 -E1 E10"/>
    </vehicle>
    <vehicle id="357" depart="1785.00">
        <route edges="-E7 -E2 -E1"/>
    </vehicle>
    <vehicle id="359" depart="1795.00">
        <route edges="-E3 -E2 -E1 -E0 -E5"/>
    </vehicle>
    <vehicle id="360" depart="1800.00">
        <route edges="-E1 -E0 -E3 -E2 E9"/>
    </vehicle>
    <vehicle id="361" depart="1805.00">
        <route edges="E3 E0 E11"/>
    </vehicle>
    <vehicle id="362" depart="1810.00">
        <route edges="E6 -E2 E9"/>
    </vehicle>
    <vehicle id="363" depart="1815.00">
        <route edges="E0 E1 E2 E3 -E5"/>
    </vehicle>
    <vehicle id="364" depart="1820.00">
        <route edges="-E0 E4"/>
    </vehicle>